FoamFile
{
    version     2.0;
    format      ascii;
    class       volScalarField;
    location    "./Sandbox/msrTest/constant/polyMesh";
    object      volPower;
}

dimensions      [1 -1 -3 0 0 0 0];

internalField   nonuniform List<scalar>
10292
(
 3.17979E-13
 1.68230E-13
 1.43644E-12
 3.30682E-13
 2.84817E-14
 5.73119E-13
 5.70435E-13
 1.31278E-13
 4.37882E-12
 5.06913E-12
 3.39449E-13
 6.43954E-13
 1.86774E-12
 1.04269E-13
 6.12132E-14
 5.06460E-13
 2.53214E-12
 2.17634E-13
 2.74042E-14
 4.00626E-13
 2.18366E-13
 5.32085E-12
 4.64160E-12
 8.47323E-14
 2.46653E-12
 2.32075E-13
 8.11488E-13
 1.26670E-12
 5.33089E-13
 4.28870E-12
 1.06169E-12
 2.02298E-13
 1.04854E-12
 1.11988E-13
 2.09547E-13
 2.34032E-13
 2.07077E-12
 1.13080E-12
 1.07558E-12
 1.49780E-12
 1.36590E-13
 1.10404E-13
 2.84028E-13
 6.39486E-13
 6.67505E-12
 1.78304E-12
 1.80846E-12
 1.20006E-12
 1.34780E-13
 2.91830E-13
 2.52342E-12
 5.11671E-13
 4.12136E-14
 2.11604E-13
 0.00000E+00
 0.00000E+00
 5.86014E-14
 7.16499E-14
 1.04543E-13
 1.58896E-12
 3.48641E-13
 1.90927E-13
 1.21080E-12
 1.79024E-12
 1.38204E-13
 2.24556E-13
 1.05051E-12
 1.47744E-12
 3.97511E-13
 2.88590E-12
 3.18934E-13
 2.02300E-12
 6.64952E-13
 6.18596E-13
 3.66423E-13
 3.76582E-14
 2.25141E-12
 2.41815E-13
 1.55910E-12
 2.79967E-12
 1.63064E-13
 4.92278E-13
 3.62292E-13
 4.61718E-13
 2.59509E-12
 7.62666E-13
 6.56036E-13
 6.33191E-13
 0.00000E+00
 3.02359E-13
 1.31006E-12
 2.15466E-12
 1.21492E-13
 4.09432E-13
 0.00000E+00
 1.77903E-13
 2.59532E-13
 6.74153E-13
 1.29884E-12
 1.71702E-13
 8.01654E-13
 5.01507E-13
 1.13136E-13
 2.55288E-12
 2.04608E-13
 2.63462E-12
 1.82535E-12
 2.49134E-14
 1.13569E-12
 2.30940E-13
 9.34906E-12
 2.96693E-13
 0.00000E+00
 1.31874E-12
 4.17446E-13
 2.25294E-14
 2.24377E-12
 9.93443E-14
 1.35806E-13
 7.53058E-14
 2.45747E-13
 5.62413E-14
 1.14214E-13
 2.83544E-12
 7.82115E-13
 4.32096E-13
 1.52187E-13
 2.42641E-12
 2.58064E-12
 6.61764E-13
 2.95821E-12
 7.49376E-13
 4.38033E-12
 4.19718E-12
 6.16563E-13
 1.20814E-13
 1.43894E-13
 0.00000E+00
 3.52387E-14
 9.68719E-13
 1.58886E-13
 6.55244E-13
 1.95532E-13
 4.65064E-13
 4.01863E-13
 2.77643E-13
 6.02639E-13
 2.30116E-13
 1.42390E-13
 5.99983E-13
 6.20737E-13
 3.32102E-13
 1.33367E-12
 3.00282E-12
 1.35484E-12
 8.30711E-13
 6.39831E-13
 2.80749E-12
 0.00000E+00
 2.03057E-13
 2.61874E-12
 2.65822E-13
 1.18149E-12
 0.00000E+00
 3.48211E-13
 1.46674E-13
 0.00000E+00
 3.99190E-13
 5.79533E-13
 1.98391E-14
 3.14687E-12
 7.50834E-13
 6.37144E-14
 1.45278E-12
 1.43558E-12
 0.00000E+00
 2.70456E-13
 7.69759E-14
 1.66545E-13
 1.46649E-12
 0.00000E+00
 4.76938E-13
 9.65588E-13
 6.75150E-13
 5.26742E-12
 2.00552E-12
 2.17142E-12
 6.78609E-13
 1.97172E-12
 3.21563E-12
 2.55670E-13
 2.71189E-12
 1.00514E-12
 7.18118E-13
 5.25597E-12
 3.38634E-13
 2.64465E-14
 2.12753E-12
 0.00000E+00
 1.79431E-14
 3.36416E-12
 1.61466E-12
 0.00000E+00
 6.59515E-13
 3.11102E-12
 1.65974E-12
 3.52966E-14
 6.59209E-13
 8.81915E-13
 6.27519E-13
 1.34298E-13
 5.26553E-12
 1.28194E-13
 2.30970E-12
 7.28148E-13
 4.48281E-13
 3.43805E-13
 2.92034E-13
 2.35939E-12
 6.52632E-12
 3.15323E-12
 4.38298E-13
 6.82313E-13
 2.24279E-13
 6.40244E-12
 9.37454E-13
 4.38592E-13
 7.80016E-14
 6.12668E-14
 2.36155E-13
 7.18737E-13
 8.13713E-13
 5.79294E-13
 4.24753E-13
 3.42187E-12
 2.50198E-12
 3.05253E-13
 7.13427E-13
 0.00000E+00
 1.13385E-12
 7.00457E-13
 2.25324E-13
 6.45000E-13
 0.00000E+00
 1.04132E-12
 3.56189E-12
 1.79259E-13
 4.50786E-13
 5.46455E-12
 0.00000E+00
 4.87335E-13
 1.21301E-12
 3.12398E-13
 2.98538E-13
 7.94948E-13
 1.81503E-12
 1.18136E-12
 6.31387E-14
 2.69044E-12
 3.50530E-12
 6.23474E-13
 9.49176E-13
 1.09621E-12
 4.38875E-12
 1.83447E-13
 3.50925E-14
 1.25677E-12
 1.85419E-12
 1.81963E-12
 3.28900E-13
 1.83970E-12
 1.98354E-13
 8.51532E-13
 1.42631E-13
 0.00000E+00
 1.71848E-12
 4.91955E-13
 3.42507E-13
 1.42877E-12
 2.85614E-13
 3.40545E-13
 2.34783E-13
 1.79316E-13
 3.67563E-13
 8.07546E-14
 1.48328E-12
 1.11477E-12
 2.15481E-13
 2.79645E-12
 0.00000E+00
 5.40586E-13
 1.24369E-12
 4.85878E-13
 0.00000E+00
 0.00000E+00
 1.15538E-12
 3.47506E-13
 1.79375E-13
 3.93134E-13
 6.41373E-13
 4.20745E-12
 4.22371E-12
 8.36238E-13
 5.00491E-13
 2.90230E-13
 1.65955E-12
 9.78017E-13
 1.37386E-12
 8.66749E-13
 3.08856E-12
 1.99270E-12
 2.33659E-12
 1.09615E-13
 9.11190E-13
 3.14515E-13
 4.59448E-13
 2.58783E-13
 4.67578E-13
 9.05833E-14
 5.58073E-13
 1.54820E-12
 2.11278E-12
 4.97640E-13
 7.66592E-13
 3.93203E-12
 3.75842E-12
 2.35554E-13
 2.86093E-14
 1.46588E-13
 1.23614E-12
 1.70390E-12
 1.11009E-13
 4.40859E-12
 9.79134E-14
 5.62092E-13
 2.16071E-13
 3.19243E-12
 2.47161E-12
 8.92913E-13
 7.44095E-13
 3.85911E-12
 5.66195E-13
 1.15715E-12
 1.35629E-12
 1.51148E-13
 1.00148E-13
 6.77276E-12
 5.48734E-12
 1.62014E-12
 9.88147E-14
 2.73157E-13
 4.17074E-13
 0.00000E+00
 2.94729E-12
 5.28343E-12
 1.92104E-13
 2.77638E-13
 1.45718E-13
 1.72013E-12
 2.52824E-14
 8.34537E-13
 1.56356E-14
 3.50774E-12
 1.99223E-12
 3.10373E-13
 2.08331E-12
 8.59633E-14
 9.42197E-13
 5.27373E-13
 1.30576E-12
 2.00928E-13
 1.19280E-13
 2.04244E-13
 9.08925E-13
 2.94486E-12
 1.17299E-12
 1.35611E-12
 1.37641E-12
 8.39126E-13
 2.44196E-13
 3.56451E-12
 2.08398E-13
 4.95075E-13
 0.00000E+00
 2.49427E-13
 3.22244E-13
 5.31410E-13
 2.16536E-12
 1.44124E-12
 0.00000E+00
 1.18749E-13
 8.87539E-13
 4.71231E-14
 4.71211E-12
 3.92654E-13
 2.12263E-12
 7.45349E-13
 3.43293E-12
 2.24157E-13
 2.29525E-13
 2.55273E-13
 0.00000E+00
 1.89682E-12
 2.77073E-12
 8.63423E-13
 1.91442E-12
 3.33222E-12
 0.00000E+00
 2.64526E-13
 0.00000E+00
 4.51427E-13
 3.29156E-12
 3.91684E-12
 5.70353E-13
 4.76286E-14
 0.00000E+00
 3.06913E-12
 2.47533E-12
 1.24683E-12
 4.09221E-13
 6.97787E-14
 1.90740E-14
 0.00000E+00
 5.91138E-13
 2.01872E-13
 6.52402E-13
 0.00000E+00
 0.00000E+00
 1.03925E-12
 1.12703E-12
 2.91562E-14
 1.88956E-12
 2.50086E-12
 2.05135E-12
 7.30155E-13
 1.40551E-12
 1.44568E-14
 9.50434E-13
 3.98815E-12
 6.02437E-14
 5.41022E-13
 4.30860E-14
 1.46005E-12
 1.07186E-12
 2.47036E-13
 1.09323E-12
 4.99776E-14
 3.84160E-13
 4.06231E-12
 0.00000E+00
 4.10860E-13
 0.00000E+00
 3.50352E-12
 1.73367E-13
 3.10951E-12
 4.91314E-13
 7.06303E-14
 0.00000E+00
 1.07992E-12
 1.34165E-12
 6.00026E-13
 1.48183E-12
 7.42711E-13
 1.31286E-12
 5.34418E-14
 4.55331E-13
 1.54572E-13
 3.21077E-12
 1.62401E-12
 2.96140E-13
 4.46402E-13
 3.51881E-12
 3.02104E-12
 4.49995E-14
 1.84216E-13
 1.08030E-12
 3.45263E-13
 1.49757E-12
 1.78855E-12
 2.24997E-13
 4.41592E-12
 1.84445E-13
 1.71903E-13
 1.42048E-13
 4.36283E-12
 6.15083E-13
 2.66204E-12
 1.83214E-12
 0.00000E+00
 8.88956E-13
 2.96865E-12
 1.08788E-12
 9.29153E-14
 1.78056E-12
 4.80052E-13
 1.17542E-13
 5.36445E-14
 1.28310E-13
 7.33480E-13
 2.87437E-14
 1.78591E-13
 3.68631E-13
 1.29865E-13
 6.34131E-13
 9.53098E-13
 2.76191E-13
 7.03737E-13
 8.55248E-13
 5.82875E-13
 7.39516E-13
 3.08269E-13
 6.29002E-14
 1.94048E-12
 2.03095E-13
 0.00000E+00
 3.53877E-13
 2.82115E-13
 2.99037E-12
 9.55909E-13
 6.40701E-13
 1.21879E-12
 5.66295E-13
 1.06654E-12
 2.22979E-13
 5.26978E-13
 7.67374E-14
 1.03596E-12
 1.83193E-13
 2.14650E-13
 9.20920E-13
 1.85465E-13
 2.87477E-14
 4.19409E-13
 3.69376E-13
 4.86519E-13
 4.23707E-13
 4.30138E-13
 1.30083E-13
 8.17127E-13
 6.00581E-13
 1.41957E-12
 6.87368E-14
 1.43665E-13
 1.21179E-12
 2.57185E-13
 1.72500E-13
 5.85823E-12
 3.62670E-12
 2.19509E-13
 1.44529E-13
 4.48944E-13
 3.71138E-13
 4.31168E-12
 1.05215E-12
 7.52755E-13
 1.13132E-12
 2.00499E-12
 5.53968E-14
 8.34687E-14
 2.52283E-13
 1.04548E-12
 1.73556E-12
 2.25184E-13
 6.59862E-13
 3.13045E-13
 2.83609E-12
 1.50124E-13
 4.68308E-13
 2.73725E-13
 4.85764E-12
 4.87625E-13
 1.51353E-12
 4.75712E-12
 2.16728E-13
 1.33529E-12
 1.35631E-13
 4.31256E-13
 2.43518E-12
 8.26030E-12
 4.77056E-13
 6.40453E-14
 3.65482E-12
 5.60590E-13
 4.63780E-13
 8.30458E-14
 0.00000E+00
 6.70201E-13
 3.82822E-13
 0.00000E+00
 2.35698E-13
 9.04806E-14
 3.99034E-13
 1.75295E-13
 3.98103E-13
 2.13673E-12
 0.00000E+00
 2.72252E-12
 2.37063E-13
 1.72561E-13
 7.75998E-13
 1.07572E-12
 5.90524E-12
 2.85826E-12
 1.25177E-12
 2.50681E-13
 2.84977E-12
 3.30748E-12
 1.79910E-12
 5.82953E-13
 3.44673E-13
 2.53643E-12
 3.38319E-12
 3.75030E-13
 3.47218E-12
 5.66988E-13
 5.10074E-14
 4.86447E-13
 0.00000E+00
 1.31837E-13
 5.63558E-13
 7.63307E-13
 8.09251E-14
 3.06483E-13
 1.60436E-12
 2.74952E-13
 2.35541E-14
 2.72997E-13
 6.54880E-14
 4.71770E-14
 4.21873E-12
 2.25026E-12
 1.10846E-12
 6.01113E-13
 0.00000E+00
 3.19644E-14
 1.78592E-12
 8.50301E-13
 4.74755E-13
 3.57924E-12
 1.32692E-12
 1.11736E-13
 2.71336E-13
 1.33279E-12
 9.30689E-13
 1.15852E-12
 1.81025E-13
 1.89646E-12
 2.13292E-13
 6.85548E-13
 8.57086E-14
 0.00000E+00
 2.66149E-13
 5.16995E-13
 1.61081E-13
 6.43429E-14
 7.19369E-13
 7.10523E-14
 1.64331E-13
 1.90886E-12
 1.58275E-13
 3.68932E-13
 2.81171E-13
 3.31056E-13
 1.22616E-12
 4.77671E-13
 2.04960E-13
 6.17622E-14
 1.17904E-12
 9.25970E-14
 3.89868E-13
 1.80919E-12
 7.30866E-13
 1.17717E-13
 6.50829E-13
 1.18730E-13
 1.81797E-12
 7.28386E-13
 4.03031E-13
 2.82257E-14
 5.16411E-13
 2.68122E-13
 9.70863E-13
 0.00000E+00
 8.42182E-13
 4.12438E-13
 1.87756E-14
 0.00000E+00
 3.92199E-14
 1.12538E-12
 2.83985E-13
 3.35344E-14
 2.09189E-13
 1.50454E-12
 9.47160E-13
 6.77203E-14
 6.05114E-13
 5.64397E-13
 3.49447E-12
 3.45361E-12
 0.00000E+00
 3.85169E-12
 1.58716E-12
 2.25811E-14
 3.67347E-12
 3.71558E-13
 1.74630E-12
 5.19920E-13
 8.19430E-13
 2.88973E-13
 1.53567E-13
 1.60432E-13
 1.53010E-13
 1.76846E-12
 7.33718E-14
 1.16169E-13
 2.11925E-12
 6.47299E-13
 9.35503E-13
 8.09317E-13
 0.00000E+00
 1.03982E-12
 2.81990E-12
 1.53466E-12
 4.87630E-13
 1.12871E-13
 3.90649E-14
 2.15279E-13
 1.26026E-13
 0.00000E+00
 2.32656E-12
 1.49313E-12
 8.16106E-13
 5.82341E-13
 6.23266E-13
 4.21614E-13
 2.99461E-13
 6.06369E-13
 1.21485E-12
 5.50894E-14
 4.33192E-13
 4.47432E-14
 5.44057E-13
 9.02223E-14
 3.91162E-14
 1.72504E-13
 0.00000E+00
 1.02723E-12
 1.35896E-12
 5.99032E-13
 6.54817E-13
 0.00000E+00
 1.32526E-13
 5.80673E-13
 3.03960E-13
 7.09502E-13
 1.22685E-13
 3.88319E-12
 1.14609E-13
 9.22258E-13
 4.39965E-12
 8.23426E-13
 0.00000E+00
 1.56779E-12
 2.04873E-14
 1.20635E-12
 1.37740E-13
 1.63183E-14
 2.15893E-13
 4.52737E-13
 7.56315E-13
 0.00000E+00
 2.21634E-12
 1.80482E-12
 5.67210E-13
 1.34545E-13
 1.95772E-13
 6.62811E-13
 6.33224E-13
 3.99923E-13
 1.10286E-12
 9.81584E-14
 2.07262E-13
 4.07575E-12
 3.78081E-13
 3.21672E-14
 1.69593E-12
 7.63652E-13
 1.43235E-12
 1.55145E-14
 2.31118E-12
 4.88532E-12
 1.44908E-12
 2.24336E-12
 1.31773E-13
 3.49727E-13
 9.66751E-14
 3.02063E-13
 7.07257E-13
 4.48006E-12
 3.01778E-12
 0.00000E+00
 7.87394E-13
 2.83889E-12
 1.02873E-12
 4.42085E-13
 5.56342E-13
 1.13370E-12
 8.31925E-13
 0.00000E+00
 8.54414E-13
 1.49851E-12
 1.86387E-13
 1.97086E-12
 4.13242E-13
 3.99769E-12
 5.14999E-13
 4.87738E-13
 8.21065E-13
 5.78687E-14
 8.67401E-13
 1.60809E-12
 0.00000E+00
 1.78004E-12
 3.54087E-12
 0.00000E+00
 3.71315E-12
 1.33061E-13
 2.75008E-13
 1.82422E-12
 6.45170E-13
 0.00000E+00
 1.54419E-14
 3.18456E-13
 2.39040E-14
 3.82557E-13
 7.87389E-13
 3.09803E-13
 3.81262E-14
 3.63230E-14
 2.75226E-13
 6.42353E-14
 1.74136E-13
 6.98461E-13
 1.82563E-13
 2.53144E-12
 1.41814E-13
 2.64389E-13
 1.15908E-12
 5.60694E-13
 0.00000E+00
 8.36936E-13
 3.28888E-14
 2.21966E-12
 4.46705E-13
 2.15781E-14
 4.89890E-14
 8.12913E-13
 0.00000E+00
 3.00262E-12
 1.80633E-14
 1.78057E-12
 4.39476E-12
 2.82427E-13
 2.24343E-13
 7.75590E-13
 1.84903E-12
 1.77981E-12
 2.99339E-13
 1.50806E-12
 1.23811E-12
 0.00000E+00
 1.32478E-13
 4.58443E-14
 4.16952E-12
 7.28741E-13
 2.08794E-14
 1.68730E-14
 3.22598E-12
 4.99170E-13
 1.84386E-12
 2.74757E-13
 8.72419E-14
 7.70928E-13
 4.01100E-13
 9.93354E-14
 4.46560E-12
 1.06027E-12
 3.35824E-13
 4.68310E-13
 2.98228E-14
 2.58955E-12
 1.24580E-12
 3.87837E-13
 4.03602E-13
 2.53100E-13
 2.55713E-12
 1.66072E-12
 1.29113E-13
 9.12260E-13
 1.19028E-13
 2.84108E-13
 8.28442E-14
 4.06711E-12
 8.35592E-13
 1.18795E-12
 2.17119E-12
 6.21325E-13
 6.33977E-13
 1.17765E-13
 2.05845E-13
 0.00000E+00
 2.16605E-14
 1.81478E-13
 3.76799E-12
 2.02726E-12
 1.07542E-12
 6.53757E-13
 5.63455E-12
 4.84384E-13
 0.00000E+00
 3.58612E-13
 1.52974E-12
 1.69597E-12
 5.80157E-13
 0.00000E+00
 4.73856E-13
 2.61754E-14
 5.51020E-13
 4.15726E-14
 1.68575E-12
 3.43880E-13
 1.88223E-12
 1.97391E-12
 1.04650E-12
 4.25696E-13
 3.53000E-13
 6.72511E-13
 1.05237E-12
 2.39624E-12
 5.33838E-13
 4.62376E-12
 3.83743E-12
 5.15165E-14
 4.86045E-12
 6.95639E-12
 2.17261E-13
 9.08254E-14
 2.35145E-14
 6.87354E-12
 0.00000E+00
 1.67711E-12
 1.67948E-12
 7.79146E-14
 4.73367E-12
 1.17934E-12
 3.11387E-13
 8.41250E-13
 1.07371E-14
 2.84508E-12
 4.11005E-13
 2.10035E-13
 2.73451E-13
 1.06896E-12
 1.88259E-13
 1.64096E-13
 5.33938E-14
 6.85792E-12
 1.31468E-12
 3.35647E-13
 2.35897E-12
 1.56530E-13
 1.93375E-12
 9.79087E-13
 0.00000E+00
 1.91114E-13
 1.16469E-12
 1.44171E-12
 2.20097E-13
 8.72728E-13
 1.96405E-12
 8.45215E-13
 1.31795E-12
 2.35173E-13
 2.87734E-12
 3.16682E-12
 2.29240E-13
 4.29946E-13
 6.01187E-14
 3.47142E-13
 2.87726E-13
 1.99401E-12
 5.67117E-13
 5.15363E-13
 2.93725E-12
 0.00000E+00
 5.29064E-12
 5.32897E-13
 1.25170E-13
 2.30264E-13
 3.42991E-14
 7.91438E-13
 2.68634E-12
 7.57468E-13
 2.59926E-14
 1.85066E-13
 1.30351E-12
 4.11477E-13
 0.00000E+00
 3.25080E-13
 7.38781E-13
 0.00000E+00
 0.00000E+00
 5.55419E-14
 1.23519E-13
 1.15969E-12
 3.73959E-12
 5.14330E-13
 2.52450E-12
 2.13423E-13
 2.54398E-12
 4.83733E-13
 1.03476E-12
 2.66667E-12
 3.96009E-13
 2.46561E-12
 3.02540E-12
 4.43163E-12
 7.24026E-13
 3.61005E-13
 1.30484E-13
 0.00000E+00
 5.70214E-14
 3.28056E-13
 6.95288E-13
 4.36813E-13
 2.31144E-12
 2.55571E-13
 1.55726E-13
 2.49031E-13
 1.43158E-12
 1.35032E-13
 3.32514E-12
 1.18228E-13
 9.76503E-13
 0.00000E+00
 2.78692E-13
 0.00000E+00
 3.29364E-13
 2.73489E-13
 1.81562E-12
 3.07320E-12
 1.39866E-12
 0.00000E+00
 1.96096E-13
 2.04544E-12
 1.90846E-14
 1.71472E-13
 4.13789E-13
 2.73709E-12
 6.12422E-13
 3.48308E-13
 2.21569E-12
 0.00000E+00
 1.42072E-12
 0.00000E+00
 3.32673E-13
 4.23389E-13
 5.25694E-12
 1.49965E-12
 2.69178E-13
 2.46026E-12
 3.55779E-12
 8.50736E-13
 5.23159E-12
 2.05246E-13
 3.26952E-13
 1.27397E-13
 2.26660E-12
 1.65233E-12
 2.31075E-13
 4.18041E-12
 6.30433E-13
 2.06035E-12
 4.61775E-12
 2.73720E-12
 4.07638E-14
 6.18996E-14
 1.75274E-13
 1.67414E-12
 1.21489E-13
 2.72867E-13
 1.54961E-14
 5.97472E-13
 2.33456E-12
 4.68730E-12
 1.42172E-13
 5.87096E-12
 5.81798E-13
 2.08899E-12
 2.71794E-13
 5.95768E-13
 2.39072E-13
 4.80836E-12
 1.71496E-13
 4.25283E-12
 3.85794E-12
 1.89481E-12
 8.22897E-13
 1.18323E-12
 2.88116E-12
 8.89031E-13
 1.31828E-12
 1.89053E-12
 1.97873E-12
 2.41452E-13
 2.88401E-14
 8.13070E-13
 1.20458E-12
 4.88445E-12
 1.88419E-12
 2.15616E-13
 2.60286E-13
 5.79983E-13
 1.02531E-12
 7.85655E-13
 5.03821E-13
 8.33417E-13
 3.90195E-12
 3.18300E-12
 5.04143E-12
 7.74275E-12
 1.13639E-13
 5.33809E-13
 6.56146E-13
 2.02988E-12
 1.82217E-12
 1.41708E-14
 1.73380E-13
 3.48271E-12
 2.73145E-13
 1.23919E-12
 2.04853E-12
 1.71001E-12
 8.39390E-13
 4.00644E-14
 7.57470E-14
 1.50567E-12
 6.27737E-13
 7.01404E-13
 1.04747E-12
 1.27603E-12
 3.09706E-12
 2.50148E-13
 2.88188E-12
 6.72029E-13
 9.81681E-13
 6.06444E-13
 2.63368E-13
 5.89784E-12
 4.02067E-12
 4.17395E-14
 1.88919E-12
 6.06562E-13
 0.00000E+00
 7.06704E-13
 2.19923E-13
 1.24434E-12
 3.55872E-13
 0.00000E+00
 2.10986E-13
 4.19003E-14
 5.59513E-13
 2.92052E-12
 2.84316E-12
 7.14220E-13
 2.55339E-12
 7.21122E-14
 1.88924E-13
 7.51157E-13
 1.21139E-12
 0.00000E+00
 1.07783E-12
 1.07027E-12
 7.51544E-13
 3.56887E-12
 3.98623E-12
 3.90879E-12
 4.50646E-13
 8.15674E-13
 3.74507E-12
 1.44799E-12
 1.22250E-12
 2.81029E-12
 7.89731E-13
 0.00000E+00
 0.00000E+00
 0.00000E+00
 3.15004E-12
 0.00000E+00
 1.73686E-12
 7.12551E-14
 2.95846E-14
 3.19276E-13
 3.01699E-12
 0.00000E+00
 3.53690E-12
 3.19186E-13
 1.83419E-13
 0.00000E+00
 3.45815E-12
 2.48479E-12
 4.68847E-12
 1.91333E-12
 9.79592E-14
 3.52657E-12
 2.46220E-12
 1.20204E-12
 6.15432E-14
 3.12211E-13
 1.76666E-13
 5.69251E-12
 3.58274E-12
 4.23879E-13
 5.62720E-13
 4.23916E-12
 6.49207E-12
 5.14665E-13
 0.00000E+00
 0.00000E+00
 4.71754E-12
 5.63182E-12
 5.37929E-12
 6.20008E-13
 5.53824E-12
 4.15440E-12
 1.97354E-14
 0.00000E+00
 0.00000E+00
 2.35616E-13
 2.11442E-13
 3.12602E-13
 1.81873E-12
 2.13412E-12
 2.32989E-13
 5.80905E-14
 1.43964E-13
 6.71820E-13
 2.75252E-12
 5.45084E-13
 2.06172E-12
 1.59925E-12
 5.96759E-13
 2.85585E-12
 5.39211E-13
 3.26433E-13
 4.43089E-14
 0.00000E+00
 5.59327E-13
 8.68699E-13
 1.17567E-12
 1.37525E-13
 5.59316E-13
 5.99336E-12
 4.69225E-13
 9.89451E-13
 9.14521E-13
 5.87318E-13
 1.65405E-12
 7.52079E-14
 6.00790E-13
 9.41837E-14
 1.79488E-12
 3.12552E-13
 2.57665E-13
 4.61904E-13
 0.00000E+00
 3.07918E-13
 2.94110E-13
 0.00000E+00
 5.57200E-13
 8.01670E-13
 1.50079E-13
 1.10905E-12
 1.66596E-13
 6.81923E-13
 1.84233E-13
 2.57124E-12
 6.19666E-13
 9.95688E-13
 2.79861E-12
 1.39032E-12
 2.02154E-13
 3.71546E-13
 3.67997E-12
 5.97731E-13
 7.17389E-13
 1.99025E-12
 1.20737E-13
 3.04773E-13
 1.06892E-13
 2.50825E-13
 2.49542E-14
 8.69191E-14
 1.49820E-14
 2.76056E-12
 2.86026E-13
 7.57120E-14
 6.37689E-13
 2.59057E-13
 4.11050E-13
 1.70011E-12
 4.04283E-13
 6.87019E-13
 1.82586E-12
 7.57342E-13
 2.67917E-13
 1.38283E-13
 2.23813E-13
 1.92518E-12
 1.29194E-12
 1.95997E-12
 5.70280E-13
 4.95678E-14
 0.00000E+00
 1.16675E-13
 6.61813E-14
 2.73220E-12
 5.85941E-14
 1.77473E-13
 1.32224E-12
 7.57265E-13
 5.85340E-13
 2.02031E-13
 1.11799E-12
 7.92665E-13
 1.02610E-13
 1.26638E-13
 4.66639E-13
 5.09329E-13
 2.98847E-13
 3.34578E-13
 4.19064E-12
 2.74204E-13
 1.14711E-14
 4.43627E-13
 7.17089E-14
 1.00436E-13
 4.44683E-13
 2.39114E-12
 8.83309E-13
 1.58262E-12
 6.56486E-13
 6.94830E-13
 4.90567E-13
 2.73507E-13
 3.59237E-13
 5.39920E-14
 7.91329E-13
 5.70804E-14
 1.46086E-12
 3.04779E-13
 4.05415E-13
 1.17346E-12
 2.72562E-13
 0.00000E+00
 5.21760E-13
 0.00000E+00
 1.10893E-12
 6.69963E-13
 7.44870E-14
 5.10798E-14
 5.77429E-13
 1.36995E-12
 2.04425E-14
 5.18072E-14
 1.77379E-12
 6.55864E-13
 4.96824E-13
 4.85945E-13
 5.75377E-13
 2.81238E-14
 6.46665E-14
 5.58916E-13
 2.40015E-13
 6.52663E-13
 1.52967E-13
 1.69002E-12
 1.12145E-13
 6.99085E-13
 8.56193E-13
 5.78729E-12
 5.19423E-13
 8.66578E-14
 4.31991E-12
 3.34283E-12
 2.26660E-12
 2.53725E-13
 3.92972E-13
 4.58278E-12
 2.90383E-13
 2.24881E-12
 1.09899E-12
 2.15369E-13
 3.95121E-13
 2.47233E-12
 3.81033E-14
 1.51087E-12
 4.89100E-13
 3.74572E-14
 5.25459E-12
 8.50178E-14
 1.79033E-12
 4.43104E-14
 2.07491E-13
 1.83617E-13
 9.60166E-13
 7.20285E-13
 4.74838E-14
 1.48642E-13
 3.27899E-13
 1.73647E-13
 3.78346E-12
 0.00000E+00
 6.21526E-13
 9.45488E-14
 9.79223E-14
 9.33571E-14
 6.68507E-13
 2.68697E-14
 4.24554E-13
 2.74528E-12
 5.52183E-13
 2.59095E-13
 8.65522E-14
 6.95173E-13
 0.00000E+00
 0.00000E+00
 2.56174E-12
 1.79191E-13
 6.99241E-12
 7.82590E-14
 5.93174E-14
 3.88111E-13
 1.49342E-12
 0.00000E+00
 1.03720E-13
 1.85837E-13
 1.31064E-12
 3.16682E-12
 2.63572E-12
 5.69063E-13
 0.00000E+00
 5.72406E-13
 0.00000E+00
 7.09692E-13
 6.76830E-13
 1.86903E-13
 7.32677E-13
 2.16258E-12
 8.78147E-13
 5.74768E-13
 1.78673E-13
 4.48701E-13
 4.92275E-13
 5.52030E-12
 1.82515E-13
 2.21940E-13
 2.97545E-13
 1.39071E-13
 4.53192E-13
 1.01517E-12
 3.79720E-13
 2.16067E-12
 2.88985E-13
 3.00547E-13
 5.18741E-13
 2.75798E-12
 6.77548E-13
 1.38104E-12
 2.14404E-13
 3.67644E-13
 2.56823E-13
 7.60829E-14
 0.00000E+00
 1.04363E-12
 1.82969E-12
 5.07061E-12
 1.75886E-12
 2.04500E-12
 5.48671E-13
 2.75001E-13
 2.18094E-13
 4.23826E-12
 1.37497E-12
 4.11386E-12
 1.21135E-12
 4.35186E-13
 7.14154E-13
 1.47292E-13
 8.43426E-13
 2.55078E-13
 7.78258E-13
 8.51827E-13
 5.05088E-12
 4.71402E-13
 8.38429E-13
 3.35292E-13
 5.37883E-13
 4.48234E-13
 4.79458E-12
 4.66352E-13
 1.04706E-13
 0.00000E+00
 6.03310E-13
 7.62044E-13
 3.61676E-13
 1.05675E-12
 7.05861E-13
 3.75194E-13
 3.66513E-12
 1.85462E-12
 0.00000E+00
 2.13514E-12
 5.62581E-13
 9.73463E-14
 1.08334E-13
 2.41018E-13
 1.94652E-12
 2.03013E-12
 9.54453E-14
 1.88437E-14
 1.17824E-14
 3.00176E-13
 8.88781E-13
 7.91331E-13
 9.32714E-13
 3.23126E-13
 4.63449E-13
 2.07022E-12
 1.46596E-12
 5.91545E-13
 2.51707E-13
 1.26834E-12
 3.36669E-12
 3.30044E-12
 9.74695E-14
 5.64281E-14
 1.04030E-12
 1.75796E-12
 2.17074E-13
 3.01369E-12
 1.06417E-12
 4.64777E-13
 2.90053E-13
 1.47401E-12
 3.94515E-13
 1.50586E-12
 5.94806E-13
 1.33560E-12
 2.74330E-12
 2.22562E-12
 6.53239E-14
 2.77322E-13
 1.30529E-12
 1.38596E-12
 2.04508E-12
 4.84570E-12
 3.42736E-13
 6.63131E-13
 2.90613E-13
 2.72970E-13
 4.03215E-12
 0.00000E+00
 1.47257E-12
 8.58645E-13
 2.26650E-12
 3.17934E-13
 5.66119E-13
 1.88891E-13
 4.37157E-13
 1.26663E-13
 2.17348E-12
 8.57025E-14
 3.21424E-14
 0.00000E+00
 7.67816E-14
 1.97689E-13
 9.41159E-13
 2.77102E-12
 1.07392E-13
 1.70169E-12
 5.14401E-12
 2.34203E-13
 6.00913E-14
 3.53026E-12
 3.63584E-13
 0.00000E+00
 1.16623E-12
 1.85223E-12
 5.55246E-12
 2.43769E-12
 4.85225E-12
 4.80785E-14
 6.54503E-13
 3.79393E-13
 4.69969E-13
 2.07698E-12
 0.00000E+00
 3.02646E-12
 3.64188E-13
 4.48084E-13
 3.61221E-13
 5.20657E-13
 2.27906E-14
 1.23536E-12
 6.62541E-13
 2.45524E-13
 3.39211E-13
 6.79507E-13
 6.84751E-14
 7.63559E-13
 3.01444E-13
 1.16671E-12
 4.62044E-12
 8.80039E-13
 9.07068E-13
 4.68127E-12
 5.62995E-12
 1.42050E-13
 4.40780E-13
 5.17198E-13
 4.64947E-12
 3.76961E-12
 5.12218E-12
 2.02159E-12
 3.29490E-12
 1.20114E-13
 0.00000E+00
 4.39875E-12
 5.76685E-12
 3.93513E-12
 4.09713E-12
 2.66518E-12
 1.03843E-13
 3.50760E-12
 5.00882E-12
 1.52883E-12
 6.65960E-13
 1.97927E-12
 4.14456E-13
 1.37791E-13
 1.65600E-12
 1.50039E-13
 2.24535E-12
 3.69587E-13
 2.40349E-13
 1.80150E-13
 0.00000E+00
 3.74405E-12
 3.00630E-13
 9.41582E-13
 1.77925E-12
 2.79978E-14
 1.48848E-12
 5.81380E-12
 4.06728E-12
 0.00000E+00
 5.81570E-12
 3.36416E-12
 2.87737E-12
 4.20846E-13
 7.48135E-13
 1.02244E-13
 1.64883E-13
 5.39559E-13
 5.54013E-12
 3.84651E-12
 1.06207E-12
 1.60298E-13
 3.17501E-13
 2.56272E-12
 8.14537E-13
 0.00000E+00
 1.23724E-12
 1.81002E-13
 4.39515E-13
 3.97883E-13
 3.23653E-13
 4.37921E-12
 2.62141E-12
 6.62652E-13
 2.69483E-13
 5.45230E-13
 1.54713E-13
 1.31855E-12
 0.00000E+00
 6.19453E-12
 2.91609E-12
 2.18061E-12
 1.07782E-13
 6.33181E-12
 6.83153E-12
 4.43966E-13
 6.93503E-14
 2.22264E-14
 3.62048E-13
 1.98275E-12
 1.45060E-13
 1.80953E-12
 2.93971E-12
 2.58989E-12
 1.83652E-13
 4.87223E-13
 2.52577E-12
 3.09188E-12
 3.27546E-12
 2.70950E-13
 1.80390E-12
 5.82053E-14
 2.18894E-13
 1.15640E-12
 2.51941E-13
 1.63845E-12
 9.67785E-13
 3.48824E-13
 3.93366E-12
 1.89896E-12
 2.84496E-14
 4.36769E-13
 4.64020E-13
 2.38344E-12
 3.63127E-12
 3.63820E-14
 3.65548E-13
 1.19988E-12
 1.70109E-13
 0.00000E+00
 3.43017E-13
 1.54826E-13
 6.06418E-13
 2.56860E-12
 0.00000E+00
 4.52410E-12
 2.09476E-13
 5.47215E-13
 2.97378E-13
 1.70632E-13
 3.01307E-12
 7.88482E-13
 5.54983E-12
 5.88270E-12
 8.53664E-13
 4.30165E-14
 9.09753E-14
 0.00000E+00
 1.96094E-12
 6.52540E-13
 1.36309E-13
 3.02543E-13
 5.91212E-13
 3.05396E-13
 1.89012E-12
 4.66812E-14
 3.22924E-12
 2.75409E-12
 2.38781E-13
 0.00000E+00
 5.23040E-13
 5.16539E-12
 2.43763E-12
 1.45636E-12
 0.00000E+00
 1.89748E-12
 2.97241E-13
 1.17474E-12
 2.24234E-12
 2.45269E-12
 4.21146E-12
 6.41411E-14
 9.03890E-13
 6.93666E-14
 5.98562E-13
 1.05857E-12
 1.45147E-12
 3.09524E-13
 3.92931E-12
 0.00000E+00
 1.00601E-12
 2.87533E-13
 3.83830E-13
 1.10853E-12
 5.08390E-13
 2.84514E-13
 1.12546E-12
 4.09243E-13
 1.16761E-12
 1.69162E-12
 8.78569E-13
 1.72537E-12
 1.16455E-12
 1.44588E-12
 1.05035E-12
 4.23423E-12
 1.58475E-13
 1.11833E-12
 3.32572E-13
 2.04346E-12
 7.57342E-14
 2.00578E-12
 2.05185E-12
 7.51291E-13
 6.40356E-13
 7.67411E-13
 3.68863E-12
 2.38108E-13
 0.00000E+00
 6.96073E-14
 4.11573E-14
 3.18004E-13
 1.95008E-12
 2.76490E-13
 7.19094E-13
 0.00000E+00
 2.21464E-12
 1.19808E-13
 1.15098E-13
 4.51141E-14
 1.70252E-13
 9.52989E-13
 2.02650E-12
 1.75536E-12
 4.30408E-12
 5.38787E-13
 1.16879E-13
 3.29676E-12
 3.71020E-13
 1.41501E-12
 4.88718E-13
 6.78449E-13
 3.91851E-13
 2.15399E-13
 2.89523E-12
 6.89287E-13
 6.51420E-12
 1.79291E-12
 1.54139E-12
 2.58751E-12
 3.02132E-12
 0.00000E+00
 2.54480E-13
 2.13960E-12
 5.24153E-13
 3.63828E-13
 3.79393E-13
 2.69467E-13
 0.00000E+00
 3.77960E-13
 3.38042E-13
 7.98882E-13
 3.59604E-12
 2.02099E-12
 5.03157E-12
 6.03825E-13
 1.29063E-12
 3.74193E-12
 7.26708E-13
 9.85927E-13
 9.62270E-13
 0.00000E+00
 9.19166E-13
 2.64785E-12
 4.65385E-13
 1.83701E-12
 3.65301E-12
 4.06412E-12
 8.25691E-13
 2.13756E-13
 1.52724E-12
 2.46741E-12
 7.70995E-14
 3.26566E-12
 6.01700E-12
 8.88383E-13
 1.28519E-14
 1.72783E-12
 3.58222E-13
 1.05876E-12
 7.56004E-14
 1.16996E-13
 0.00000E+00
 3.13093E-12
 1.19903E-13
 2.45426E-13
 5.26733E-13
 4.65409E-13
 4.44365E-13
 7.51675E-13
 6.46613E-13
 0.00000E+00
 1.22994E-13
 0.00000E+00
 8.78061E-15
 4.27843E-14
 6.10812E-14
 7.04114E-14
 2.27843E-13
 4.80010E-13
 2.13355E-13
 3.28572E-12
 3.36170E-13
 5.33982E-12
 1.35066E-13
 1.35567E-12
 2.61229E-13
 3.28935E-14
 0.00000E+00
 3.50653E-13
 1.73473E-13
 1.56825E-12
 7.85652E-13
 1.43166E-13
 2.78645E-13
 2.35153E-12
 3.15062E-12
 1.14862E-12
 3.69874E-13
 4.61819E-13
 9.90077E-13
 1.23630E-13
 8.22397E-13
 2.38512E-13
 1.98105E-14
 2.72604E-13
 5.50980E-13
 3.04790E-13
 2.08134E-13
 9.99250E-13
 5.78823E-13
 4.20960E-13
 2.59197E-13
 2.16358E-12
 1.17915E-12
 6.27638E-13
 3.27907E-12
 7.26403E-13
 7.15894E-13
 2.71363E-13
 1.12579E-13
 4.50373E-13
 4.50195E-12
 5.50880E-13
 0.00000E+00
 1.28885E-12
 1.73269E-14
 2.33210E-13
 4.72859E-13
 6.66969E-13
 7.62025E-13
 8.18121E-13
 8.25525E-14
 3.10363E-13
 4.59830E-13
 2.17123E-13
 1.95318E-13
 0.00000E+00
 1.85234E-12
 9.16681E-13
 5.28015E-13
 3.35254E-13
 2.85364E-13
 2.29084E-13
 1.03775E-12
 4.14815E-12
 1.73627E-14
 2.24988E-14
 6.19668E-14
 3.46969E-13
 1.85739E-14
 6.98820E-13
 3.87006E-13
 1.57392E-12
 2.06433E-12
 4.10992E-14
 2.25603E-13
 1.66788E-12
 3.51055E-14
 1.18303E-12
 8.24821E-13
 1.36057E-12
 5.71027E-13
 3.02773E-13
 4.37131E-13
 2.29714E-13
 4.69607E-14
 0.00000E+00
 1.41605E-13
 8.31038E-14
 4.79390E-13
 5.69589E-14
 1.81200E-13
 4.38985E-13
 5.03043E-13
 5.41543E-13
 1.04772E-13
 3.53552E-13
 1.52977E-13
 4.38045E-12
 2.64314E-12
 0.00000E+00
 5.23694E-14
 2.96793E-13
 3.71365E-12
 1.08452E-12
 3.05627E-14
 6.27140E-13
 1.52890E-13
 2.59711E-12
 8.93098E-14
 1.24775E-12
 9.47791E-14
 2.80295E-13
 9.83904E-13
 2.81673E-13
 1.50403E-13
 0.00000E+00
 1.03144E-12
 2.45299E-13
 6.40714E-13
 8.12835E-14
 4.60828E-14
 1.47573E-13
 8.86533E-13
 8.59105E-14
 3.47709E-13
 2.26506E-12
 5.51362E-14
 0.00000E+00
 6.30010E-13
 7.16293E-14
 2.23738E-12
 5.19357E-13
 6.91040E-13
 4.20240E-13
 3.08075E-13
 7.10004E-13
 5.43358E-13
 2.88321E-13
 8.85973E-13
 5.59658E-14
 6.33948E-13
 4.18517E-13
 1.57353E-13
 2.53593E-12
 5.90327E-13
 7.22776E-13
 3.44970E-13
 5.17988E-13
 2.91793E-13
 5.59926E-12
 7.11417E-14
 1.58246E-13
 1.24368E-13
 0.00000E+00
 4.23174E-14
 5.67857E-13
 1.05696E-13
 6.70833E-13
 3.64009E-13
 9.29110E-14
 4.25431E-14
 3.97838E-13
 6.97951E-13
 7.57381E-13
 9.35674E-13
 5.82955E-13
 8.56021E-13
 6.71112E-14
 5.70987E-13
 5.04836E-13
 3.79157E-13
 8.66552E-13
 4.07302E-13
 1.95700E-12
 4.25639E-13
 1.30227E-14
 1.38968E-12
 2.95781E-13
 2.12242E-12
 8.88868E-14
 6.94234E-13
 1.85587E-14
 8.27403E-13
 1.89137E-12
 1.18698E-12
 1.41303E-12
 2.05118E-12
 1.62580E-12
 2.32649E-12
 1.74717E-12
 5.93416E-13
 1.62519E-13
 9.32459E-14
 2.00063E-13
 3.06984E-13
 0.00000E+00
 5.17385E-14
 1.69594E-14
 1.28220E-14
 1.43815E-12
 1.02363E-12
 5.16445E-13
 4.08685E-13
 3.08176E-14
 2.77257E-12
 7.98378E-14
 5.66319E-13
 2.19099E-13
 9.01419E-14
 4.58438E-12
 3.52487E-13
 6.84663E-13
 9.35141E-14
 3.62293E-13
 1.10697E-13
 0.00000E+00
 2.87539E-12
 5.58234E-13
 5.50207E-13
 4.07267E-13
 5.48835E-13
 2.23123E-13
 6.01871E-13
 1.01248E-13
 4.38601E-13
 8.40458E-13
 7.06818E-14
 6.33158E-14
 0.00000E+00
 1.55108E-13
 8.68238E-14
 1.08807E-12
 1.09124E-12
 1.86641E-13
 6.14090E-14
 1.24748E-12
 6.34685E-13
 4.20389E-13
 8.89073E-13
 8.52003E-13
 3.18437E-14
 1.37852E-12
 3.11311E-12
 3.15925E-13
 6.24480E-13
 2.65629E-14
 1.74053E-12
 2.12235E-13
 0.00000E+00
 1.26479E-14
 1.19706E-12
 4.39831E-13
 1.27152E-13
 3.28203E-13
 3.16982E-12
 9.87897E-13
 1.35472E-12
 1.46160E-12
 1.12386E-12
 1.80700E-13
 2.27290E-13
 3.45161E-13
 5.95230E-13
 1.95204E-14
 1.42753E-14
 0.00000E+00
 2.98140E-13
 6.56372E-13
 1.89141E-12
 1.28176E-12
 5.69295E-12
 1.49626E-12
 1.70802E-12
 0.00000E+00
 5.44743E-14
 9.84289E-13
 1.13577E-12
 1.06308E-12
 3.58734E-14
 2.24255E-12
 4.23918E-14
 1.49028E-12
 1.30637E-12
 5.49637E-12
 2.33637E-12
 1.60477E-12
 5.01103E-13
 7.53932E-13
 2.26837E-12
 0.00000E+00
 0.00000E+00
 2.63150E-12
 5.42112E-12
 4.04787E-12
 7.21383E-13
 1.89492E-12
 3.03230E-13
 4.24783E-13
 1.74689E-12
 4.68222E-13
 1.15436E-12
 4.18759E-12
 1.93284E-13
 2.81689E-13
 1.56714E-13
 1.28945E-13
 1.10997E-12
 3.29335E-13
 3.60765E-13
 7.07471E-13
 8.31580E-13
 6.81571E-13
 3.13091E-13
 7.67025E-13
 3.04753E-13
 3.97877E-13
 7.77820E-13
 8.99172E-14
 7.03662E-13
 1.13315E-13
 7.48878E-13
 1.58383E-12
 1.39150E-13
 6.54810E-13
 2.27917E-13
 4.82407E-13
 9.46381E-13
 9.09301E-13
 2.83829E-12
 4.14909E-13
 1.45691E-12
 6.63502E-13
 2.04810E-13
 1.75285E-13
 7.30265E-14
 5.87136E-14
 3.54601E-12
 2.98958E-12
 4.21842E-12
 1.53264E-12
 1.23330E-13
 0.00000E+00
 0.00000E+00
 7.58758E-13
 2.13088E-12
 5.56352E-12
 2.68408E-13
 3.63783E-12
 1.17389E-12
 3.28765E-13
 7.57794E-14
 4.17079E-13
 4.88497E-13
 6.49263E-13
 5.39094E-13
 2.45577E-12
 1.42286E-12
 1.01712E-13
 6.30618E-12
 6.14531E-12
 1.80856E-12
 1.74111E-12
 1.52016E-12
 8.55604E-13
 1.01623E-12
 1.95360E-12
 3.83659E-13
 1.10086E-12
 8.90331E-14
 2.34089E-12
 2.01754E-12
 4.90838E-13
 5.86484E-13
 2.33144E-13
 1.26244E-12
 4.37480E-13
 2.24358E-12
 6.59713E-13
 1.99527E-12