FoamFile
{
    version     2.0;
    format      ascii;
    class       volScalarField;
    location    "./Sandbox/msrTest/constant/polyMesh";
    object      volPower;
}

dimensions      [1 -1 -3 0 0 0 0];

internalField   nonuniform List<scalar>
10292
(
 4.64533E-13
 3.40883E-13
 1.63693E-12
 1.01043E-13
 2.50386E-13
 9.82650E-13
 1.12184E-12
 4.15203E-13
 4.74648E-12
 6.15416E-12
 8.48109E-14
 3.76879E-13
 2.58729E-12
 2.17765E-13
 1.58245E-14
 4.41227E-13
 2.83581E-12
 2.47526E-13
 1.19891E-13
 1.52534E-13
 4.50776E-13
 6.51786E-12
 4.52195E-12
 1.56443E-13
 2.10789E-12
 4.29668E-13
 3.43975E-13
 2.60727E-12
 3.33049E-13
 2.77981E-12
 3.44821E-13
 1.42138E-13
 1.35857E-12
 1.25474E-13
 3.82598E-13
 2.24979E-13
 1.56488E-12
 8.77759E-13
 8.86484E-13
 4.13274E-13
 4.39636E-13
 1.72359E-14
 1.02964E-13
 7.59314E-13
 4.97659E-12
 1.41783E-12
 2.02666E-12
 1.00025E-12
 0.00000E+00
 1.03569E-12
 2.72162E-12
 9.49479E-13
 1.71954E-14
 1.38568E-13
 0.00000E+00
 5.64846E-14
 3.41541E-14
 1.98872E-13
 0.00000E+00
 2.05521E-12
 7.52208E-13
 1.93592E-13
 9.78154E-13
 2.38959E-12
 1.52960E-13
 2.59994E-13
 4.83561E-13
 1.78064E-12
 1.21335E-12
 1.80123E-12
 9.70338E-13
 9.33355E-13
 5.92214E-13
 1.10327E-12
 2.84772E-13
 2.59095E-13
 2.42897E-12
 1.29310E-13
 2.82772E-12
 1.85208E-12
 2.57576E-13
 5.15548E-13
 1.03786E-12
 8.15522E-13
 3.56386E-12
 1.90927E-14
 6.02935E-13
 1.20540E-13
 0.00000E+00
 5.55724E-13
 1.60447E-12
 2.55013E-12
 7.43341E-14
 1.64444E-13
 0.00000E+00
 2.24172E-13
 1.05378E-13
 6.19858E-13
 1.77009E-12
 2.54513E-13
 9.51139E-13
 2.11419E-13
 1.29489E-13
 2.73598E-12
 4.01891E-13
 1.81372E-12
 2.65848E-12
 2.08782E-14
 9.85291E-13
 0.00000E+00
 6.33403E-12
 2.54192E-13
 3.54166E-13
 1.13659E-12
 7.98695E-13
 7.89790E-14
 1.11723E-12
 1.62531E-13
 1.69359E-13
 1.17790E-13
 1.09383E-13
 1.00331E-12
 6.60769E-13
 2.50324E-12
 2.71058E-13
 3.54831E-13
 5.66456E-13
 2.13986E-12
 3.16076E-12
 3.39242E-13
 3.96794E-12
 3.62182E-13
 4.53848E-12
 3.72641E-12
 1.28260E-13
 2.36671E-13
 1.71945E-13
 0.00000E+00
 1.14262E-13
 8.73884E-14
 2.25422E-14
 5.90453E-13
 5.47780E-13
 1.29353E-13
 3.46463E-13
 1.86121E-14
 5.58107E-13
 2.48039E-13
 6.44008E-13
 6.78698E-13
 1.03205E-12
 1.70995E-13
 1.85424E-12
 1.00496E-12
 1.90003E-12
 9.00329E-13
 1.21381E-12
 1.26609E-12
 1.37342E-13
 1.16163E-13
 2.78740E-12
 9.58928E-14
 1.76369E-12
 8.55421E-14
 1.67350E-13
 6.75159E-13
 1.14898E-13
 3.06745E-13
 9.09970E-13
 1.71909E-13
 2.21752E-12
 4.39621E-13
 1.39168E-13
 1.20046E-12
 1.81192E-12
 0.00000E+00
 1.86065E-13
 7.93021E-14
 4.77402E-14
 2.45810E-12
 1.41916E-14
 2.60829E-13
 1.31442E-12
 5.52795E-13
 7.37441E-12
 2.69065E-12
 1.03097E-12
 2.84084E-13
 1.90648E-12
 4.92756E-12
 2.87275E-13
 3.08037E-12
 1.85732E-12
 1.11734E-12
 5.34363E-12
 1.89077E-13
 2.16730E-14
 1.77315E-12
 7.72815E-13
 7.54768E-14
 2.98937E-12
 1.89334E-12
 5.25389E-14
 7.44299E-13
 2.44454E-12
 1.93996E-12
 1.30366E-13
 1.66481E-13
 1.51583E-12
 9.64698E-13
 2.49016E-14
 5.13980E-12
 8.53467E-14
 1.32121E-12
 2.49852E-13
 5.09959E-14
 1.42925E-13
 4.97386E-13
 3.40261E-12
 4.74184E-12
 4.04820E-12
 7.32145E-14
 6.14568E-13
 1.76595E-13
 6.95673E-12
 1.08520E-12
 2.02078E-13
 7.06887E-14
 0.00000E+00
 1.22715E-13
 3.13628E-13
 5.41847E-13
 4.28147E-13
 5.31866E-13
 3.19603E-12
 3.69565E-12
 3.38094E-14
 5.59483E-13
 1.76239E-13
 8.51271E-13
 3.36723E-13
 4.29148E-14
 2.78192E-13
 3.81891E-14
 1.02572E-13
 2.61045E-12
 4.02351E-13
 1.28349E-13
 6.07863E-12
 9.98367E-14
 1.51213E-13
 5.72745E-13
 1.34140E-13
 3.37836E-13
 3.40649E-13
 1.38790E-12
 9.56643E-13
 0.00000E+00
 3.28188E-12
 2.42131E-12
 3.54029E-13
 9.28258E-13
 2.08514E-12
 3.65683E-12
 8.87343E-14
 1.71577E-13
 1.16461E-12
 2.51266E-12
 1.30241E-12
 8.86571E-13
 2.39772E-12
 2.09875E-13
 6.88757E-13
 2.97879E-13
 0.00000E+00
 1.67806E-12
 4.72524E-13
 1.72958E-13
 7.73160E-13
 3.92512E-13
 3.13556E-13
 6.98359E-13
 2.49581E-13
 3.37149E-14
 5.93685E-14
 2.71107E-12
 6.76008E-13
 1.55386E-13
 2.19048E-12
 6.01649E-14
 4.38630E-13
 1.76217E-12
 1.02996E-13
 9.72964E-14
 0.00000E+00
 4.98014E-13
 1.57643E-13
 3.72520E-13
 5.31224E-13
 9.86837E-13
 4.63776E-12
 5.44092E-12
 9.26521E-13
 1.13092E-12
 2.91461E-13
 2.49973E-12
 8.17612E-13
 2.31958E-12
 1.48927E-12
 4.97756E-12
 4.12512E-12
 1.65558E-12
 2.93215E-13
 1.80195E-12
 0.00000E+00
 5.52730E-13
 2.07347E-13
 4.13142E-13
 1.13924E-13
 3.71308E-13
 1.78156E-12
 1.57270E-12
 5.60404E-13
 8.72059E-13
 3.63317E-12
 3.33981E-12
 5.36454E-13
 2.62583E-14
 6.78653E-14
 1.14500E-12
 2.31646E-12
 5.54069E-14
 6.13756E-12
 0.00000E+00
 6.23796E-13
 2.22524E-13
 3.45418E-12
 2.75560E-12
 7.72632E-13
 4.07579E-13
 3.79347E-12
 2.53247E-13
 5.68070E-13
 2.98774E-13
 9.16394E-14
 3.25388E-13
 6.61442E-12
 5.97521E-12
 1.57105E-12
 6.05436E-13
 4.24286E-13
 7.50987E-13
 5.40615E-14
 4.69201E-12
 6.09858E-12
 7.91719E-13
 6.69475E-14
 1.62590E-13
 2.05335E-12
 2.34435E-14
 1.12546E-12
 0.00000E+00
 3.65669E-12
 2.34072E-12
 8.91493E-14
 2.61942E-12
 1.63297E-14
 1.48940E-12
 5.26818E-13
 9.35955E-13
 1.29534E-13
 1.43360E-13
 3.12849E-13
 3.11276E-13
 3.34647E-12
 1.18319E-12
 1.23745E-12
 1.01965E-12
 3.95358E-13
 9.61653E-13
 3.19291E-12
 2.68737E-13
 2.32354E-13
 0.00000E+00
 3.23506E-13
 4.12506E-13
 3.80278E-13
 2.44250E-12
 8.88101E-13
 1.21172E-13
 3.29101E-13
 2.01042E-12
 5.89370E-13
 4.39131E-12
 4.02583E-13
 2.87536E-12
 2.55686E-12
 2.96347E-12
 0.00000E+00
 1.01720E-13
 2.32210E-13
 5.86566E-13
 1.84230E-12
 3.21444E-12
 4.58238E-13
 2.04760E-12
 2.46073E-12
 1.02098E-13
 2.21191E-13
 0.00000E+00
 3.86820E-14
 2.12711E-12
 2.73642E-12
 1.03970E-13
 4.68915E-13
 0.00000E+00
 3.35410E-12
 2.43667E-12
 9.28237E-13
 4.82748E-13
 3.24076E-13
 0.00000E+00
 3.63558E-14
 2.03679E-13
 9.32943E-14
 2.59583E-13
 5.31670E-14
 0.00000E+00
 1.38332E-12
 2.55206E-12
 4.46106E-13
 1.83813E-12
 3.00041E-12
 1.91830E-12
 3.58525E-13
 2.10316E-12
 9.96405E-14
 1.16226E-12
 5.04584E-12
 0.00000E+00
 5.90364E-13
 1.16611E-13
 8.04638E-13
 1.98570E-12
 3.52353E-13
 6.42283E-13
 3.17780E-13
 1.21795E-13
 2.96474E-12
 6.42866E-14
 4.33998E-13
 2.74404E-14
 4.88465E-12
 6.88152E-14
 3.97622E-12
 2.04855E-13
 7.23053E-14
 0.00000E+00
 1.34111E-12
 9.98988E-13
 5.85455E-13
 1.66571E-12
 5.76537E-13
 8.71452E-13
 3.29050E-13
 4.62790E-13
 2.94540E-13
 1.81160E-12
 1.71835E-12
 4.08362E-13
 2.04119E-13
 5.29442E-12
 2.73105E-12
 2.58033E-13
 3.04030E-13
 1.09517E-12
 2.29893E-13
 2.73746E-12
 2.07008E-12
 4.73159E-13
 2.16903E-12
 4.00589E-13
 1.73038E-13
 2.29822E-13
 4.49751E-12
 4.48647E-13
 1.57729E-12
 1.96197E-12
 2.82280E-13
 9.54946E-13
 2.43285E-12
 4.84333E-13
 1.89277E-13
 1.94601E-12
 7.91693E-13
 2.24669E-13
 3.82292E-14
 4.77457E-13
 1.01781E-12
 0.00000E+00
 2.00887E-13
 6.97974E-13
 7.25086E-13
 7.43061E-13
 1.84412E-13
 3.81480E-13
 7.36742E-13
 8.26891E-13
 1.66754E-12
 3.55029E-13
 6.74711E-13
 2.56852E-13
 2.80461E-12
 4.10571E-13
 7.61815E-14
 2.83510E-13
 1.64640E-13
 2.56284E-12
 1.54273E-12
 9.45380E-13
 1.38517E-12
 6.48985E-13
 4.06611E-13
 3.23796E-14
 2.52162E-13
 3.07745E-13
 1.03304E-12
 1.76022E-13
 2.24236E-13
 9.74848E-13
 5.04282E-13
 2.59295E-13
 4.65560E-13
 3.78253E-13
 1.14736E-13
 2.28231E-13
 8.98672E-13
 1.93712E-13
 9.23846E-13
 2.21254E-13
 1.04334E-12
 9.31151E-14
 1.01049E-13
 7.38927E-13
 4.30044E-13
 1.40182E-13
 6.60965E-12
 3.30523E-12
 8.29985E-14
 2.82631E-13
 2.92785E-13
 2.39848E-13
 3.54299E-12
 7.54862E-13
 1.32507E-12
 1.13532E-12
 1.12819E-12
 3.28629E-14
 6.39042E-14
 3.21834E-13
 1.41459E-12
 2.38753E-12
 5.70363E-13
 1.55058E-12
 6.96747E-13
 3.91340E-12
 4.43386E-14
 2.90581E-13
 4.50681E-13
 3.34831E-12
 2.19262E-13
 1.39980E-12
 5.63653E-12
 2.35838E-13
 1.38495E-12
 4.92462E-14
 2.84330E-13
 2.45531E-12
 4.46712E-12
 1.54767E-13
 3.28815E-13
 2.07112E-12
 2.69354E-13
 3.25370E-13
 1.65632E-13
 7.40117E-14
 5.01125E-13
 7.08408E-13
 0.00000E+00
 7.63043E-13
 2.68601E-14
 3.61398E-13
 1.65755E-13
 1.62107E-13
 2.15261E-12
 1.95857E-13
 3.24987E-12
 7.53761E-14
 1.03629E-13
 3.11368E-13
 8.79853E-13
 6.39518E-12
 2.44015E-12
 1.05761E-12
 2.09551E-13
 3.17462E-12
 1.38027E-12
 1.66170E-12
 6.18796E-13
 1.22685E-13
 2.01892E-12
 3.59204E-12
 3.83104E-13
 2.26623E-12
 4.93092E-13
 2.17588E-13
 9.02837E-15
 2.33677E-14
 2.22466E-13
 2.05963E-13
 2.59669E-13
 6.55891E-14
 1.01852E-12
 1.42359E-12
 0.00000E+00
 1.70137E-13
 8.40377E-13
 8.87454E-13
 1.40873E-12
 4.32803E-12
 1.83929E-12
 1.65210E-12
 1.51067E-12
 3.30194E-14
 1.42054E-13
 2.74973E-12
 4.34151E-13
 1.15856E-12
 3.72359E-12
 2.16832E-12
 1.50835E-13
 6.05539E-13
 1.18862E-12
 1.80510E-12
 2.15736E-12
 2.61058E-13
 2.09354E-12
 2.34908E-13
 7.29052E-13
 7.61190E-13
 5.67596E-14
 2.61246E-13
 1.03989E-12
 2.68589E-13
 3.99660E-14
 4.28264E-13
 2.04200E-13
 1.32045E-13
 2.54810E-12
 1.44260E-13
 5.44658E-13
 2.49021E-13
 5.92928E-13
 2.71609E-13
 1.09229E-12
 8.43982E-14
 1.77539E-13
 1.53756E-12
 2.31344E-13
 9.68716E-13
 2.27621E-12
 1.83279E-13
 3.61604E-13
 6.21033E-13
 9.38046E-14
 1.27245E-12
 9.50281E-13
 5.92051E-13
 3.85617E-13
 1.39878E-12
 3.89722E-13
 4.92247E-13
 0.00000E+00
 1.70163E-12
 4.82579E-13
 4.53298E-14
 4.70667E-13
 0.00000E+00
 9.84819E-13
 5.00196E-13
 0.00000E+00
 3.69705E-13
 1.30129E-12
 1.00124E-12
 3.79732E-13
 5.25432E-13
 3.15479E-13
 3.44665E-12
 1.79799E-12
 0.00000E+00
 2.80373E-12
 1.63279E-12
 0.00000E+00
 2.26632E-12
 2.84082E-13
 6.94803E-13
 5.20258E-13
 1.09290E-12
 4.52037E-14
 4.03951E-13
 1.35710E-13
 1.31117E-14
 1.42592E-12
 5.47760E-14
 4.90518E-13
 9.09449E-13
 6.86015E-13
 7.99483E-13
 6.21796E-13
 2.06002E-13
 9.44028E-13
 2.87850E-12
 1.55943E-12
 3.53948E-13
 1.02221E-13
 7.66590E-14
 3.65530E-13
 8.18138E-13
 2.51112E-13
 4.45444E-12
 3.05392E-12
 1.13528E-12
 3.34725E-13
 2.84398E-13
 3.31878E-13
 8.76788E-13
 2.71542E-13
 1.04005E-12
 5.76800E-14
 2.76086E-13
 1.32391E-13
 4.69354E-13
 7.05677E-14
 0.00000E+00
 3.18542E-13
 0.00000E+00
 1.04489E-12
 1.70237E-12
 8.35830E-13
 3.08872E-13
 9.50945E-14
 2.56657E-13
 3.82165E-13
 5.28608E-13
 9.32863E-13
 2.75693E-13
 2.92261E-12
 1.12021E-12
 4.06466E-13
 3.92424E-12
 1.00692E-12
 0.00000E+00
 1.38710E-12
 0.00000E+00
 1.29482E-12
 9.73413E-14
 5.11190E-13
 2.14430E-13
 4.96056E-13
 7.40149E-13
 9.75582E-14
 1.31005E-12
 1.89514E-12
 5.34488E-13
 3.65899E-13
 3.37454E-13
 7.20279E-13
 4.43666E-13
 7.78104E-13
 6.38009E-13
 6.93119E-13
 2.23078E-13
 4.16793E-12
 3.05132E-13
 5.79445E-14
 1.18187E-12
 7.13056E-13
 9.98572E-13
 1.21721E-13
 1.13528E-12
 4.87460E-12
 2.23601E-12
 9.18443E-13
 4.80262E-14
 9.71262E-13
 1.57105E-14
 7.10988E-13
 2.93504E-14
 5.03123E-12
 2.77020E-12
 7.06138E-14
 1.43349E-12
 4.14678E-12
 4.88382E-13
 6.07067E-13
 7.99441E-13
 2.16246E-13
 6.66279E-13
 0.00000E+00
 7.85680E-13
 2.20193E-13
 1.10414E-13
 1.41842E-12
 1.09951E-12
 3.89234E-12
 4.55687E-13
 7.52167E-13
 7.81544E-13
 2.82264E-13
 9.99756E-13
 1.35191E-12
 0.00000E+00
 1.36391E-12
 3.40251E-12
 5.63704E-14
 3.61348E-12
 1.70198E-13
 3.57866E-13
 2.85658E-12
 2.15212E-13
 1.55247E-13
 1.97348E-13
 4.74755E-13
 8.24635E-14
 1.07800E-13
 1.53586E-13
 1.75026E-13
 3.10638E-13
 9.17175E-14
 3.83015E-13
 2.32130E-13
 5.60246E-13
 7.05148E-13
 6.29041E-13
 3.14024E-12
 1.74450E-13
 1.21777E-12
 1.10781E-12
 3.25034E-13
 1.33217E-13
 7.66353E-13
 3.59942E-14
 1.68217E-12
 7.30121E-13
 5.66061E-14
 5.74676E-14
 1.04865E-12
 3.19083E-13
 2.69379E-12
 4.15090E-13
 2.73554E-12
 4.93218E-12
 1.41052E-13
 2.18577E-13
 8.32133E-13
 2.27387E-12
 2.06073E-12
 6.03734E-13
 1.95280E-12
 1.47752E-12
 2.02305E-13
 7.37642E-14
 7.17381E-14
 4.31106E-12
 1.12754E-12
 1.00488E-13
 1.10968E-13
 2.47134E-12
 2.77811E-13
 1.65275E-12
 0.00000E+00
 4.08119E-13
 7.45059E-13
 4.21320E-13
 0.00000E+00
 4.30011E-12
 6.44642E-13
 0.00000E+00
 2.73839E-13
 2.87469E-13
 2.37780E-12
 1.47174E-12
 2.38042E-13
 2.61376E-13
 2.83902E-13
 2.13658E-12
 3.23196E-12
 5.85932E-14
 5.65187E-13
 0.00000E+00
 6.78763E-14
 0.00000E+00
 4.70878E-12
 9.22281E-13
 4.27136E-13
 3.26257E-12
 7.08020E-13
 6.51258E-13
 1.62333E-13
 9.82286E-14
 8.19856E-13
 3.62350E-13
 4.15295E-13
 3.12860E-12
 1.04043E-12
 1.44672E-12
 8.94039E-13
 3.05243E-12
 1.57769E-13
 1.71607E-14
 4.06618E-13
 1.65744E-12
 2.93993E-12
 5.66473E-13
 0.00000E+00
 3.52369E-13
 0.00000E+00
 3.84571E-13
 2.22183E-13
 1.38218E-12
 1.82320E-13
 2.32699E-12
 1.19483E-12
 7.99814E-13
 7.70530E-13
 1.58066E-14
 7.79492E-13
 9.16356E-13
 2.85398E-12
 2.34125E-13
 6.26853E-12
 2.20170E-12
 0.00000E+00
 3.63128E-12
 4.45057E-12
 2.43109E-13
 4.32585E-13
 6.51915E-14
 6.41666E-12
 5.22899E-13
 1.45779E-12
 9.74622E-13
 4.88625E-13
 3.45351E-12
 1.64561E-12
 4.15104E-13
 7.08027E-13
 1.62340E-13
 1.50337E-12
 6.41968E-13
 2.55007E-13
 8.99573E-15
 1.12928E-12
 2.28843E-13
 6.46163E-13
 2.77248E-13
 6.73795E-12
 1.22934E-12
 4.12945E-13
 7.76672E-13
 3.17334E-13
 9.92688E-13
 6.60550E-13
 3.19021E-14
 5.23101E-13
 8.78125E-13
 1.03005E-12
 9.98568E-14
 8.08292E-13
 2.58971E-12
 1.65456E-12
 6.89036E-13
 3.15032E-13
 2.90545E-12
 2.85596E-12
 3.33313E-13
 3.80839E-13
 4.10573E-13
 3.18039E-13
 1.91070E-13
 2.11544E-12
 7.04701E-13
 1.84873E-12
 3.55785E-12
 1.90503E-14
 4.29781E-12
 3.33122E-13
 4.05099E-14
 0.00000E+00
 2.00200E-13
 3.45976E-13
 1.30886E-12
 5.35465E-13
 3.34433E-14
 1.97281E-13
 8.91878E-13
 5.50553E-13
 5.27075E-14
 7.29472E-13
 5.43568E-13
 0.00000E+00
 7.29836E-14
 4.11037E-13
 5.41891E-13
 2.13534E-12
 3.02704E-12
 5.44378E-13
 2.51233E-12
 2.09124E-14
 3.53650E-12
 1.66850E-13
 1.31080E-12
 5.07732E-12
 3.06693E-13
 4.10578E-12
 2.65565E-12
 4.03873E-12
 1.00794E-13
 5.11501E-13
 4.93768E-13
 1.15884E-13
 2.57063E-13
 2.19121E-13
 1.42823E-12
 7.79832E-13
 2.35924E-12
 6.34386E-14
 1.87604E-13
 2.12553E-13
 1.13856E-12
 4.89640E-13
 2.94023E-12
 0.00000E+00
 1.46623E-12
 2.37520E-14
 1.43242E-13
 1.20028E-13
 3.42632E-13
 9.43692E-13
 3.69469E-12
 2.74818E-12
 1.32996E-12
 6.24665E-14
 2.58314E-13
 2.29842E-12
 3.88363E-13
 1.81542E-13
 6.10147E-13
 4.82167E-12
 4.39421E-13
 3.68571E-13
 2.24210E-12
 6.02611E-14
 9.68826E-13
 1.22777E-13
 4.19301E-13
 3.24411E-13
 3.99980E-12
 1.85360E-12
 4.10672E-13
 2.26451E-12
 3.34887E-12
 3.78138E-13
 2.94131E-12
 5.28704E-13
 6.60277E-13
 9.99206E-15
 2.23916E-12
 3.70650E-12
 1.02880E-13
 3.63609E-12
 7.81319E-13
 1.68256E-12
 5.08084E-12
 2.44664E-12
 7.24456E-14
 1.93256E-13
 1.09579E-13
 1.36583E-12
 1.26216E-13
 5.56069E-13
 4.77767E-14
 3.74459E-13
 1.88741E-12
 4.06282E-12
 1.07404E-13
 3.03546E-12
 6.14057E-14
 1.29216E-12
 1.44029E-13
 1.08835E-12
 4.16893E-14
 4.51974E-12
 2.63807E-13
 1.74067E-12
 3.56709E-12
 2.26632E-12
 1.45998E-12
 1.03516E-12
 3.69876E-12
 1.04938E-12
 6.89344E-13
 1.44670E-12
 2.08789E-12
 3.76644E-13
 2.92968E-14
 6.85537E-13
 1.06376E-12
 5.58180E-12
 2.40117E-12
 4.26228E-13
 0.00000E+00
 3.45950E-13
 9.23578E-13
 6.66821E-13
 2.99494E-13
 1.17416E-12
 3.08129E-12
 3.73640E-12
 2.80614E-12
 4.41446E-12
 5.86544E-13
 5.08363E-13
 6.11634E-13
 8.38380E-13
 2.61022E-12
 3.14470E-14
 7.42837E-13
 4.15278E-12
 4.86774E-13
 1.07381E-12
 2.63665E-12
 1.80351E-12
 1.28005E-12
 6.41627E-13
 2.42102E-14
 1.35241E-12
 4.73912E-13
 3.84053E-13
 2.09161E-12
 9.44306E-13
 4.00642E-12
 1.48910E-13
 1.74992E-12
 8.62330E-13
 1.00854E-12
 6.00840E-13
 3.69681E-13
 5.82616E-12
 3.66906E-12
 8.44053E-14
 1.91449E-12
 1.20417E-12
 0.00000E+00
 1.28392E-12
 1.18753E-13
 1.74348E-12
 2.79326E-13
 0.00000E+00
 3.28387E-13
 2.04159E-13
 2.78858E-13
 2.91029E-12
 4.92949E-12
 3.89446E-13
 3.40905E-12
 4.43010E-14
 0.00000E+00
 5.56494E-13
 1.12738E-12
 4.46343E-13
 1.07189E-12
 6.13695E-13
 6.53721E-13
 5.13136E-12
 4.43436E-12
 4.39220E-12
 3.62896E-13
 7.11713E-13
 2.72874E-12
 1.27646E-12
 1.96560E-12
 1.20188E-12
 7.18339E-13
 7.63279E-14
 4.32530E-13
 0.00000E+00
 2.96235E-12
 2.27062E-14
 2.27066E-12
 1.51832E-13
 0.00000E+00
 1.42343E-13
 3.07184E-12
 0.00000E+00
 3.12325E-12
 3.80717E-13
 3.79452E-13
 0.00000E+00
 4.23181E-12
 1.53702E-12
 5.37394E-12
 1.31770E-12
 1.86644E-13
 4.39658E-12
 2.04453E-12
 1.82722E-12
 1.48045E-13
 3.04837E-13
 1.43862E-13
 3.93052E-12
 4.09100E-12
 3.63715E-13
 7.18094E-13
 4.18766E-12
 6.87527E-12
 6.15274E-13
 0.00000E+00
 0.00000E+00
 3.88188E-12
 5.02624E-12
 6.39214E-12
 5.38595E-13
 4.23156E-12
 4.34908E-12
 5.27198E-14
 0.00000E+00
 7.48798E-14
 5.94884E-14
 2.91731E-13
 5.52617E-13
 2.54834E-12
 2.94288E-12
 1.75172E-13
 1.19231E-13
 2.18471E-13
 4.57699E-13
 3.84597E-12
 1.20888E-13
 2.53635E-12
 1.31578E-12
 2.68430E-13
 3.36831E-12
 9.87282E-14
 1.38478E-13
 0.00000E+00
 1.53162E-13
 4.92408E-13
 7.79228E-13
 5.72150E-13
 1.69020E-14
 7.83556E-13
 4.70250E-12
 7.82461E-13
 1.81064E-12
 1.48559E-12
 9.47363E-13
 3.15083E-12
 1.15587E-13
 4.98634E-13
 2.72015E-13
 1.30339E-12
 4.76691E-13
 1.01727E-12
 6.05484E-13
 1.50078E-13
 0.00000E+00
 6.54804E-13
 0.00000E+00
 9.81001E-14
 1.37277E-12
 2.49129E-13
 1.06888E-12
 1.67707E-13
 7.50244E-13
 1.03955E-13
 1.85346E-12
 6.78914E-13
 5.19981E-13
 3.71829E-12
 5.77669E-13
 1.79274E-13
 3.85504E-13
 2.88129E-12
 3.90776E-13
 8.02105E-13
 2.25168E-12
 4.35260E-14
 1.64724E-13
 1.61830E-13
 6.83198E-13
 3.96239E-13
 5.46574E-14
 1.03680E-13
 2.30523E-12
 6.55262E-13
 2.17115E-13
 1.63341E-12
 5.42892E-13
 2.43981E-13
 1.51173E-13
 5.89148E-14
 4.42730E-13
 2.49102E-12
 4.27404E-13
 7.12576E-13
 1.59777E-13
 2.54492E-13
 2.85528E-12
 1.32454E-12
 2.16018E-12
 8.58895E-13
 2.63602E-13
 1.48468E-13
 1.43489E-13
 4.77892E-14
 1.95513E-12
 2.55230E-13
 3.97728E-13
 1.63540E-12
 6.42268E-13
 1.80945E-13
 3.42882E-13
 8.91074E-13
 9.20840E-14
 0.00000E+00
 8.05567E-14
 1.03354E-12
 8.07369E-13
 5.56969E-13
 2.31402E-13
 4.41530E-12
 5.14864E-14
 7.38016E-14
 2.28491E-13
 5.82611E-14
 2.99018E-13
 5.43159E-13
 3.30427E-12
 3.70165E-13
 1.54251E-12
 1.24664E-12
 4.62037E-13
 2.80858E-13
 3.17687E-13
 4.52700E-13
 0.00000E+00
 1.19202E-12
 1.50986E-13
 2.44628E-12
 2.12368E-13
 1.50287E-13
 6.26373E-13
 3.45929E-13
 0.00000E+00
 4.75927E-13
 0.00000E+00
 1.50683E-12
 4.57460E-14
 5.81208E-14
 2.06226E-13
 3.58733E-14
 4.99357E-13
 0.00000E+00
 1.58083E-13
 8.64254E-13
 4.96098E-14
 8.02746E-13
 4.72462E-13
 6.02819E-13
 1.56541E-13
 5.92903E-13
 4.02413E-13
 2.35097E-13
 3.93763E-13
 5.31180E-14
 1.50646E-12
 1.16581E-13
 1.12127E-12
 1.41770E-12
 3.70926E-12
 2.11316E-13
 0.00000E+00
 5.57075E-12
 3.80592E-12
 1.26144E-12
 1.09302E-13
 7.27265E-13
 3.38569E-12
 4.46559E-13
 1.81656E-12
 5.73156E-13
 1.55889E-13
 6.02093E-13
 2.10149E-12
 9.20486E-14
 3.37621E-12
 4.80445E-13
 3.68149E-13
 5.40841E-12
 0.00000E+00
 1.76946E-12
 1.97843E-13
 2.65316E-13
 2.72386E-13
 1.12796E-12
 1.53313E-12
 0.00000E+00
 3.37330E-13
 1.67127E-13
 1.10460E-13
 1.71680E-12
 0.00000E+00
 9.43643E-13
 1.66952E-13
 1.95018E-13
 8.53061E-14
 1.06208E-12
 3.97760E-13
 6.69136E-13
 4.00996E-12
 2.71722E-13
 4.57759E-13
 4.14279E-14
 3.55109E-13
 1.39449E-13
 8.46504E-14
 4.50850E-12
 2.95652E-13
 8.21987E-12
 5.81713E-13
 3.72394E-14
 1.80812E-13
 9.90813E-13
 4.69049E-13
 1.06304E-13
 8.33735E-14
 1.02594E-12
 2.77914E-12
 1.66492E-12
 4.86904E-13
 8.38276E-14
 9.91509E-13
 4.27241E-14
 7.12293E-13
 9.04213E-13
 1.80235E-13
 8.80185E-13
 1.72624E-12
 1.73922E-12
 6.96518E-13
 3.61208E-13
 3.09969E-13
 7.66578E-13
 6.09622E-12
 9.76545E-14
 9.75188E-14
 1.86843E-13
 5.25111E-13
 2.02321E-12
 2.14314E-12
 1.15361E-12
 2.35139E-12
 5.97182E-13
 0.00000E+00
 7.06500E-13
 1.75400E-12
 5.51173E-13
 1.94260E-12
 4.64235E-13
 3.60280E-13
 2.48039E-13
 7.42974E-14
 9.92366E-14
 6.75948E-13
 1.49688E-12
 5.55810E-12
 3.68748E-13
 1.70039E-12
 6.53387E-13
 7.16937E-13
 8.28585E-14
 4.77198E-12
 1.12390E-12
 4.07837E-12
 1.79492E-12
 8.41441E-13
 7.39692E-13
 1.01417E-12
 6.50932E-13
 8.97018E-13
 2.17448E-13
 5.09214E-13
 6.56590E-12
 1.72896E-13
 4.28961E-13
 3.31518E-13
 3.40534E-13
 1.58699E-13
 5.51326E-12
 4.96420E-13
 1.70300E-13
 1.26513E-13
 7.91157E-13
 4.85670E-13
 4.76351E-13
 1.73469E-12
 2.75189E-13
 1.34729E-13
 1.90888E-12
 1.31386E-12
 0.00000E+00
 1.93558E-12
 4.47083E-13
 6.64206E-13
 2.11813E-13
 2.63851E-13
 2.46304E-12
 1.45676E-12
 9.66098E-14
 0.00000E+00
 1.11271E-13
 5.66489E-13
 1.26957E-12
 1.70803E-12
 8.32149E-13
 4.22910E-13
 3.97925E-13
 2.24389E-12
 1.45038E-12
 3.66385E-13
 2.94301E-13
 7.08370E-13
 3.13652E-12
 3.35919E-12
 5.86328E-14
 1.74173E-13
 6.46935E-13
 2.43024E-12
 7.54472E-14
 3.34239E-12
 1.35713E-12
 2.63770E-13
 3.26703E-13
 1.03967E-12
 7.13623E-14
 1.28990E-12
 9.24546E-13
 1.86673E-12
 3.69407E-12
 2.37043E-12
 1.23240E-13
 1.68053E-13
 9.77254E-13
 2.21074E-12
 2.88493E-12
 5.94186E-12
 1.57977E-13
 1.13960E-12
 7.89735E-13
 4.05775E-13
 4.36501E-12
 2.65330E-14
 1.34087E-12
 1.87272E-13
 2.44559E-12
 1.19292E-13
 5.83577E-13
 6.61869E-14
 6.24478E-13
 2.38530E-14
 3.57327E-12
 2.00368E-14
 1.49142E-13
 6.54523E-13
 0.00000E+00
 4.73306E-13
 5.70637E-13
 1.71321E-12
 7.14963E-13
 1.13768E-12
 4.70225E-12
 6.01894E-14
 0.00000E+00
 2.90197E-12
 6.93241E-14
 0.00000E+00
 8.61684E-14
 2.79552E-12
 5.42171E-12
 2.85483E-12
 5.69379E-12
 6.40954E-15
 1.55079E-12
 7.36879E-13
 1.09161E-12
 2.93362E-12
 1.57179E-13
 4.28309E-12
 9.05531E-13
 7.43855E-13
 8.06394E-13
 5.41221E-13
 0.00000E+00
 4.74566E-13
 5.28236E-13
 5.71019E-14
 1.05745E-12
 4.78911E-13
 5.77631E-14
 5.12831E-13
 5.88809E-13
 8.43751E-13
 5.11884E-12
 4.14029E-13
 1.10727E-12
 3.46579E-12
 4.12406E-12
 6.21269E-13
 1.30835E-12
 9.41768E-13
 6.94777E-12
 3.82549E-12
 6.12724E-12
 1.94964E-12
 4.44323E-12
 1.16552E-13
 0.00000E+00
 2.98227E-12
 4.43075E-12
 3.93512E-12
 4.39057E-12
 3.41557E-12
 3.10737E-14
 4.53966E-12
 4.30148E-12
 2.19209E-12
 8.50572E-14
 2.57219E-12
 6.87010E-13
 6.13423E-13
 2.48342E-12
 1.42256E-13
 1.66249E-12
 1.59019E-13
 0.00000E+00
 1.70409E-13
 1.02061E-13
 5.14181E-12
 1.65098E-13
 6.72304E-13
 1.79980E-12
 2.40124E-14
 1.97562E-12
 5.16637E-12
 5.20460E-12
 0.00000E+00
 5.59802E-12
 3.89244E-12
 3.46959E-12
 8.06838E-13
 7.89476E-13
 8.44643E-14
 9.89805E-14
 5.01970E-13
 5.26572E-12
 6.03566E-12
 9.81644E-13
 3.12291E-13
 3.64708E-13
 2.28981E-12
 1.64066E-13
 0.00000E+00
 1.17419E-12
 3.14021E-13
 6.72534E-13
 5.02320E-13
 1.35054E-13
 4.63567E-12
 3.74291E-12
 2.37687E-13
 9.36067E-15
 9.29676E-13
 6.40311E-13
 1.47190E-12
 9.18461E-14
 5.04002E-12
 4.39142E-12
 1.89647E-12
 3.99903E-13
 4.38318E-12
 6.80173E-12
 3.31964E-13
 1.14142E-13
 9.32002E-14
 3.79428E-13
 1.88221E-12
 1.41852E-13
 2.65729E-12
 3.63388E-12
 2.88368E-12
 0.00000E+00
 5.76548E-13
 1.94115E-12
 2.07520E-12
 5.41525E-12
 9.01157E-13
 3.17586E-12
 1.59153E-13
 5.99039E-13
 6.56289E-13
 2.39343E-14
 1.81931E-12
 1.22792E-12
 2.82088E-13
 2.96582E-12
 3.14821E-12
 1.39235E-13
 3.94682E-13
 1.06802E-13
 3.34716E-12
 3.26030E-12
 0.00000E+00
 6.59230E-14
 1.43994E-12
 3.14674E-13
 5.19048E-14
 1.10128E-13
 2.84144E-13
 1.31609E-13
 1.82982E-12
 4.50734E-14
 3.05747E-12
 3.03425E-13
 4.83407E-13
 1.36703E-13
 8.06116E-14
 4.03810E-12
 4.94647E-13
 5.83195E-12
 6.15987E-12
 9.22163E-13
 0.00000E+00
 8.35177E-14
 2.30423E-13
 1.38165E-12
 4.83846E-13
 0.00000E+00
 2.47017E-13
 4.94121E-13
 5.75083E-14
 1.50362E-12
 4.20427E-13
 3.00750E-12
 2.20153E-12
 2.75849E-13
 1.24082E-13
 4.65754E-13
 6.01336E-12
 2.94660E-12
 1.87795E-12
 0.00000E+00
 2.32232E-12
 7.52399E-13
 1.69649E-12
 1.82227E-12
 1.92169E-12
 2.32562E-12
 1.60622E-13
 1.53427E-12
 1.64058E-13
 2.87278E-13
 3.47910E-13
 7.79478E-13
 1.07787E-13
 4.59722E-12
 0.00000E+00
 2.50067E-13
 5.81702E-13
 8.33385E-13
 5.67771E-13
 3.34279E-13
 6.37022E-13
 1.24605E-12
 4.00166E-13
 9.40949E-13
 1.73528E-12
 1.09735E-12
 1.70725E-12
 9.28945E-13
 7.23551E-13
 1.31359E-12
 3.71176E-12
 8.82309E-13
 2.18956E-12
 1.18816E-13
 2.38906E-12
 1.68461E-13
 1.38598E-12
 1.56497E-12
 2.69845E-13
 4.91271E-13
 5.88259E-13
 3.32530E-12
 1.01094E-13
 1.92930E-13
 0.00000E+00
 9.44953E-14
 1.50895E-13
 2.17642E-12
 4.42529E-13
 5.85686E-13
 9.92114E-14
 2.76290E-12
 2.18777E-14
 1.47195E-13
 0.00000E+00
 2.92270E-13
 9.11912E-13
 9.12335E-13
 2.21378E-12
 3.68854E-12
 5.32932E-13
 1.03211E-13
 2.97451E-12
 3.41045E-13
 9.95137E-14
 5.21826E-14
 1.63093E-13
 1.88970E-13
 2.64846E-14
 2.76779E-12
 1.44197E-12
 5.26169E-12
 8.02869E-13
 1.91428E-12
 2.48578E-12
 2.72525E-12
 0.00000E+00
 1.69627E-13
 1.37955E-12
 7.51312E-13
 5.46885E-13
 9.01907E-13
 5.65549E-13
 0.00000E+00
 2.20594E-14
 2.05010E-13
 5.43328E-13
 4.88076E-12
 2.04907E-12
 6.37254E-12
 4.91795E-13
 5.14612E-13
 2.93406E-12
 4.92509E-13
 6.16681E-13
 6.42946E-13
 0.00000E+00
 1.36940E-12
 2.76799E-12
 7.01825E-13
 3.02308E-12
 5.61652E-12
 5.80027E-12
 7.96541E-13
 6.29088E-13
 2.20418E-12
 1.93450E-12
 0.00000E+00
 2.40295E-12
 5.01908E-12
 8.19134E-13
 3.19096E-14
 1.73176E-12
 4.61287E-13
 8.38574E-13
 3.74036E-13
 1.57713E-13
 2.36544E-14
 3.46302E-12
 1.82636E-13
 2.37719E-13
 5.81031E-13
 6.12203E-13
 4.18803E-13
 1.68892E-13
 1.16711E-12
 0.00000E+00
 1.41213E-13
 0.00000E+00
 2.01580E-13
 2.01065E-13
 1.71053E-13
 2.53070E-14
 4.54258E-13
 4.79500E-13
 2.68687E-13
 4.92439E-12
 4.12025E-13
 5.58849E-12
 1.38512E-12
 1.54563E-12
 7.20538E-13
 2.31119E-13
 8.64754E-14
 4.36455E-13
 4.51591E-13
 1.57366E-12
 3.19970E-13
 5.67732E-14
 1.28611E-13
 1.51588E-12
 2.42235E-12
 1.15129E-12
 8.15287E-13
 5.69888E-13
 6.79386E-13
 6.11296E-14
 7.69524E-13
 4.65474E-13
 2.00637E-14
 8.51200E-14
 3.05769E-13
 9.48991E-14
 8.22258E-14
 1.41279E-12
 3.74809E-13
 3.93154E-13
 4.28364E-13
 1.98984E-12
 4.16654E-13
 1.56136E-12
 4.16962E-12
 1.07851E-12
 2.41406E-13
 3.67841E-13
 2.44601E-14
 2.85304E-13
 2.44712E-12
 7.66470E-13
 0.00000E+00
 1.27711E-12
 2.22364E-13
 9.76608E-14
 9.16932E-13
 6.99837E-13
 1.25232E-12
 1.43700E-12
 8.48402E-14
 2.61096E-13
 2.08943E-13
 8.65939E-13
 2.09649E-13
 0.00000E+00
 2.76431E-12
 1.40502E-12
 1.09891E-12
 7.58629E-13
 3.22339E-13
 6.82062E-13
 1.03617E-12
 3.24262E-12
 1.32636E-13
 8.07695E-14
 1.97148E-13
 4.58546E-13
 1.95980E-13
 3.54831E-13
 0.00000E+00
 7.42516E-13
 1.71720E-12
 9.58585E-14
 2.12611E-13
 6.79399E-13
 5.30857E-13
 1.46899E-12
 1.92648E-13
 1.10331E-12
 9.59705E-14
 1.25767E-13
 2.25970E-13
 2.36885E-13
 1.76215E-14
 2.01603E-13
 1.32587E-13
 2.34039E-13
 2.83880E-13
 5.71909E-14
 2.89134E-13
 5.36459E-14
 3.99721E-13
 7.41482E-13
 1.25310E-13
 3.01961E-13
 2.00151E-14
 5.49148E-12
 2.63191E-12
 8.50584E-14
 1.69180E-14
 1.35411E-13
 2.95315E-12
 2.91953E-12
 0.00000E+00
 3.66238E-13
 0.00000E+00
 1.76563E-12
 6.44806E-14
 1.19136E-12
 2.21044E-13
 6.37402E-13
 1.72573E-12
 2.68978E-13
 3.50072E-13
 0.00000E+00
 8.72870E-13
 2.45233E-13
 1.65399E-12
 3.37508E-13
 3.12739E-13
 1.82996E-13
 1.81869E-12
 7.55238E-14
 1.08609E-12
 2.40973E-12
 3.66148E-14
 0.00000E+00
 5.37366E-13
 2.78810E-14
 2.30713E-12
 3.93679E-13
 1.67569E-12
 6.24735E-13
 6.89198E-13
 2.44517E-13
 1.46803E-13
 3.62673E-14
 8.95368E-13
 1.27084E-13
 5.17942E-13
 2.01033E-13
 2.60310E-13
 1.69318E-12
 3.83282E-13
 1.93655E-12
 1.68247E-13
 1.62908E-13
 2.69525E-13
 5.40314E-12
 1.21228E-13
 3.39037E-13
 5.04358E-14
 8.71941E-15
 0.00000E+00
 4.50484E-13
 2.74125E-13
 1.21829E-13
 1.75474E-13
 1.86262E-13
 1.36402E-13
 2.22403E-13
 6.75336E-13
 1.14032E-12
 1.05693E-12
 5.06101E-13
 3.62244E-13
 1.55038E-13
 2.25556E-13
 4.67139E-13
 5.70519E-13
 8.94882E-13
 2.23205E-13
 2.68526E-12
 1.26769E-13
 0.00000E+00
 1.11861E-12
 4.92702E-13
 1.30037E-12
 8.54030E-14
 6.15390E-13
 0.00000E+00
 2.43388E-13
 1.72898E-12
 2.20869E-13
 7.73277E-14
 1.61588E-12
 7.76835E-13
 1.60752E-12
 2.46900E-12
 4.89679E-13
 5.87852E-14
 6.40171E-14
 7.75463E-13
 7.42807E-13
 0.00000E+00
 0.00000E+00
 0.00000E+00
 2.17161E-13
 7.42475E-13
 8.72790E-13
 1.77597E-13
 2.94441E-13
 0.00000E+00
 3.86508E-12
 3.96808E-13
 5.30551E-13
 1.61974E-13
 0.00000E+00
 4.96407E-12
 3.45137E-13
 9.11223E-13
 1.31841E-13
 3.71192E-13
 3.96594E-14
 0.00000E+00
 3.21465E-12
 8.49637E-13
 8.68223E-13
 6.79841E-13
 1.00132E-12
 3.04679E-13
 6.63540E-13
 1.58163E-13
 6.60353E-13
 1.10436E-12
 8.84403E-14
 2.38673E-13
 0.00000E+00
 2.45468E-13
 2.58900E-13
 1.05038E-12
 1.54086E-12
 2.02564E-13
 2.76030E-14
 8.65171E-13
 6.76447E-13
 2.24944E-13
 4.50178E-13
 1.01951E-12
 4.15442E-14
 1.54306E-12
 3.51010E-12
 1.40131E-12
 5.15413E-13
 1.35815E-13
 2.81387E-12
 1.56234E-13
 2.10033E-13
 1.18816E-13
 1.31406E-12
 5.09929E-13
 1.53332E-13
 5.63278E-13
 2.36531E-12
 1.53079E-12
 1.11976E-12
 1.50489E-12
 9.22052E-13
 3.10997E-14
 1.55638E-13
 1.96372E-14
 1.60194E-12
 9.43530E-14
 2.19874E-14
 0.00000E+00
 3.14441E-13
 7.85321E-13
 1.32493E-12
 2.03487E-12
 4.73453E-12
 1.79184E-12
 1.78138E-12
 9.10639E-14
 4.98844E-14
 1.08045E-12
 2.55681E-12
 1.81593E-12
 0.00000E+00
 1.00420E-12
 3.62540E-14
 1.68383E-12
 1.60217E-12
 3.85362E-12
 3.22842E-12
 1.76869E-12
 3.32224E-13
 7.93231E-13
 2.48645E-12
 1.88558E-14
 0.00000E+00
 1.79386E-12
 5.48909E-12
 2.61508E-12
 1.08676E-12
 1.30687E-12
 6.09098E-13
 4.06000E-13
 1.27281E-12
 9.07375E-13
 1.78086E-12
 4.02557E-12
 7.66780E-13
 1.02107E-13
 2.61495E-13
 2.64087E-13
 1.11557E-12
 3.88784E-13
 6.57734E-13
 8.66910E-13
 5.36268E-13
 1.37222E-12
 1.82383E-13
 6.73619E-13
 3.50051E-13
 3.88879E-13
 9.28907E-13
 2.00134E-14
 7.44042E-13
 2.31065E-13
 3.21097E-13
 1.47655E-12
 6.19578E-13
 3.74713E-13
 2.63579E-13
 3.07480E-13
 6.07485E-13
 0.00000E+00
 3.83222E-12
 5.60018E-13
 1.93840E-12
 6.38123E-13
 3.25996E-13
 1.92054E-13
 3.30340E-13
 3.10834E-13
 1.70575E-12
 2.50510E-12
 4.25585E-12
 1.14987E-12
 4.07536E-13
 0.00000E+00
 0.00000E+00
 5.19848E-13
 2.50768E-12
 6.32887E-12
 1.77637E-13
 4.77906E-12
 9.31387E-13
 7.28289E-13
 1.69603E-14
 1.64806E-13
 2.70062E-13
 6.23784E-13
 8.17837E-13
 2.13604E-12
 5.90345E-13
 0.00000E+00
 4.76810E-12
 5.17641E-12
 1.40169E-12
 1.21451E-12
 1.66485E-12
 6.32772E-13
 7.13772E-13
 3.96946E-12
 5.74634E-13
 1.14060E-12
 2.33591E-13
 2.28649E-12
 1.67986E-12
 5.35059E-13
 1.10049E-12
 6.40321E-14
 1.65420E-12
 3.49320E-13
 1.33787E-12
 2.18299E-13
 3.55498E-12