FoamFile
{
    version     2.0;
    format      ascii;
    class       volScalarField;
    location    "constant/polyMesh";
    object      volPower;
}

dimensions      [1 -1 -3 0 0 0 0];

internalField   nonuniform List<scalar>
10292
(
 2.46191E-13
 1.56118E-13
 2.07630E-12
 2.59046E-13
 2.64218E-13
 8.39868E-13
 1.15969E-12
 1.35931E-13
 5.02979E-12
 5.85539E-12
 2.53249E-13
 6.70178E-13
 1.83025E-12
 4.07241E-13
 1.18857E-13
 4.55361E-13
 3.12807E-12
 3.52306E-13
 8.28296E-14
 2.33256E-13
 6.18130E-13
 5.83606E-12
 2.98488E-12
 8.62641E-14
 2.50030E-12
 6.27707E-13
 3.04471E-13
 1.95647E-12
 7.78600E-13
 4.57231E-12
 5.71294E-13
 2.68006E-13
 8.18830E-13
 2.54037E-13
 4.31550E-13
 2.23094E-13
 2.54057E-12
 7.57987E-13
 1.09832E-12
 3.68499E-13
 4.32504E-13
 9.44071E-14
 2.70877E-13
 6.70614E-13
 6.00019E-12
 2.05669E-12
 2.77216E-12
 1.16269E-12
 8.86259E-14
 4.29938E-13
 2.68661E-12
 6.94370E-13
 1.65233E-13
 2.27100E-13
 5.45492E-14
 6.29740E-14
 1.66039E-13
 1.35568E-13
 1.73238E-13
 2.55516E-12
 6.05559E-13
 3.42697E-13
 9.02386E-13
 2.45864E-12
 1.81117E-13
 3.06301E-13
 4.53629E-13
 2.67749E-12
 1.04010E-12
 3.01766E-12
 4.63701E-13
 1.54941E-12
 6.35819E-13
 6.64430E-13
 3.42217E-13
 1.65562E-13
 2.30194E-12
 2.61935E-13
 2.05176E-12
 1.83010E-12
 2.50802E-13
 4.94965E-13
 3.41029E-13
 5.97875E-13
 2.59877E-12
 1.84185E-13
 6.15446E-13
 6.18421E-13
 7.17188E-14
 5.66724E-13
 1.78826E-12
 2.76408E-12
 2.71832E-13
 3.46846E-13
 3.38879E-14
 2.09625E-13
 4.65539E-13
 9.18241E-13
 9.53247E-13
 1.62335E-13
 3.52080E-13
 5.09892E-13
 2.95872E-13
 1.83583E-12
 4.40443E-13
 3.24595E-12
 2.27211E-12
 7.03367E-14
 8.83132E-13
 8.49361E-14
 6.19937E-12
 4.25914E-13
 7.83444E-14
 1.26839E-12
 5.09131E-13
 6.27887E-14
 2.11740E-12
 1.66249E-13
 1.62384E-13
 1.79313E-13
 3.53329E-13
 8.01736E-14
 3.29524E-13
 3.60670E-12
 6.74796E-13
 3.04467E-13
 3.54058E-13
 2.26783E-12
 3.10873E-12
 9.71726E-13
 2.96938E-12
 5.46099E-13
 4.01876E-12
 3.24030E-12
 2.09434E-13
 2.64893E-13
 2.39436E-13
 6.83281E-14
 3.81224E-14
 1.81141E-13
 1.41307E-13
 2.89760E-13
 4.79742E-13
 3.35965E-13
 4.75881E-13
 1.22588E-13
 6.48279E-13
 4.31775E-13
 4.74313E-13
 4.65014E-13
 6.47230E-13
 3.09151E-13
 1.83976E-12
 2.00574E-12
 1.85462E-12
 1.13679E-12
 8.55447E-13
 2.11131E-12
 9.51319E-14
 2.92718E-13
 2.90045E-12
 1.97726E-13
 1.76717E-12
 1.96790E-13
 2.78002E-13
 3.26174E-13
 9.52874E-14
 2.91387E-13
 7.01046E-13
 5.60167E-14
 2.04530E-12
 5.98742E-13
 3.00496E-13
 1.42109E-12
 1.98569E-12
 5.80148E-14
 1.73989E-13
 1.17440E-13
 3.18279E-13
 2.06704E-12
 9.19347E-14
 5.08665E-13
 1.08053E-12
 4.44995E-13
 5.56156E-12
 2.71441E-12
 1.83502E-12
 5.19471E-13
 1.61582E-12
 4.20794E-12
 1.52915E-13
 2.52603E-12
 1.25099E-12
 9.14766E-13
 5.63949E-12
 2.91881E-13
 7.58535E-14
 1.65094E-12
 7.86229E-14
 1.43531E-13
 2.82910E-12
 1.55338E-12
 7.38755E-14
 5.70627E-13
 2.57699E-12
 1.41157E-12
 1.29677E-13
 3.88084E-13
 6.50556E-13
 8.55391E-13
 8.63474E-14
 4.76188E-12
 2.67680E-13
 1.39698E-12
 4.33844E-13
 1.05392E-13
 2.25532E-13
 4.86494E-13
 3.03257E-12
 4.61728E-12
 3.82610E-12
 2.64867E-13
 6.52688E-13
 2.90478E-13
 6.39699E-12
 1.01400E-12
 3.16735E-13
 1.64761E-13
 4.16102E-14
 2.25925E-13
 4.11936E-13
 4.65481E-13
 8.90295E-13
 5.41473E-13
 4.25178E-12
 3.15256E-12
 4.45185E-13
 7.71203E-13
 1.44458E-13
 9.66095E-13
 3.79215E-13
 1.64670E-13
 4.27262E-13
 4.21905E-14
 2.75363E-13
 2.28025E-12
 3.96496E-13
 1.92265E-13
 5.72200E-12
 4.14063E-14
 4.83858E-13
 9.44601E-13
 4.56446E-13
 3.96835E-13
 3.00637E-13
 2.17046E-12
 9.67104E-13
 3.62378E-14
 2.57731E-12
 2.47913E-12
 4.38406E-13
 1.18131E-12
 1.87692E-12
 4.18144E-12
 2.33795E-13
 3.90628E-13
 1.14454E-12
 3.02470E-12
 1.74989E-12
 7.30243E-13
 1.61135E-12
 3.60977E-13
 1.06530E-12
 3.09953E-13
 8.20110E-14
 1.65231E-12
 6.32847E-13
 3.56833E-13
 1.13650E-12
 3.50162E-13
 4.34043E-13
 3.48472E-13
 2.79860E-13
 2.04767E-13
 2.59676E-13
 2.65462E-12
 9.60830E-13
 3.66785E-13
 2.51291E-12
 1.39960E-13
 5.17782E-13
 1.78552E-12
 3.27169E-13
 3.68040E-14
 3.78998E-14
 4.53110E-13
 3.30504E-13
 3.10643E-13
 4.36486E-13
 9.10830E-13
 4.13784E-12
 2.82830E-12
 8.26026E-13
 7.62372E-13
 5.08206E-13
 1.78637E-12
 1.22343E-12
 2.42980E-12
 1.19885E-12
 2.97836E-12
 4.21374E-12
 1.97701E-12
 5.37273E-13
 1.74448E-12
 7.51138E-14
 9.61785E-13
 4.46967E-13
 3.17567E-13
 1.64317E-13
 6.56224E-13
 2.00741E-12
 2.08847E-12
 4.38334E-13
 1.01544E-12
 3.90178E-12
 3.76401E-12
 5.53641E-13
 1.11292E-13
 2.99404E-13
 1.16689E-12
 2.01707E-12
 3.33084E-13
 5.49374E-12
 4.48685E-14
 4.61804E-13
 4.13943E-13
 2.85364E-12
 2.37014E-12
 7.95457E-13
 6.99485E-13
 3.95434E-12
 4.43942E-13
 6.85041E-13
 5.05968E-13
 4.70276E-14
 4.24729E-13
 5.18621E-12
 5.41533E-12
 2.04967E-12
 3.67493E-13
 4.97026E-13
 8.65034E-13
 1.73674E-13
 2.32484E-12
 6.17136E-12
 3.72538E-13
 4.67269E-14
 1.24107E-13
 1.96100E-12
 9.07689E-14
 1.05086E-12
 1.08822E-13
 3.09909E-12
 1.64613E-12
 2.00590E-13
 2.89622E-12
 5.47972E-14
 1.21330E-12
 6.16927E-13
 1.03578E-12
 1.28993E-13
 2.05938E-13
 2.57173E-13
 2.31607E-13
 3.23085E-12
 1.78185E-12
 1.37518E-12
 1.44700E-12
 8.02885E-13
 4.14122E-13
 2.91348E-12
 2.34614E-13
 3.34711E-13
 6.91737E-14
 5.72731E-13
 3.77985E-13
 6.02163E-13
 2.66493E-12
 1.13370E-12
 1.57037E-13
 3.85224E-13
 1.73994E-12
 3.15914E-13
 3.38432E-12
 6.21292E-13
 2.06655E-12
 1.53410E-12
 2.79768E-12
 5.07314E-14
 3.84331E-13
 2.46630E-13
 1.33543E-13
 1.42325E-12
 3.53431E-12
 6.38110E-13
 2.29896E-12
 3.22109E-12
 6.35598E-14
 4.19454E-13
 4.41824E-14
 2.22530E-13
 3.05315E-12
 3.37511E-12
 1.56665E-13
 2.59165E-13
 8.05632E-14
 2.26403E-12
 2.48798E-12
 1.38587E-12
 6.74350E-13
 1.55607E-13
 9.64973E-14
 4.70793E-14
 3.10558E-13
 1.55643E-13
 4.59726E-13
 1.02459E-13
 5.04594E-14
 1.25393E-12
 1.76019E-12
 4.64683E-13
 2.80887E-12
 3.06810E-12
 1.80007E-12
 7.25198E-13
 2.05343E-12
 1.42401E-13
 9.95849E-13
 4.22328E-12
 7.20908E-14
 5.25103E-13
 6.93310E-14
 7.84590E-13
 1.28525E-12
 5.77740E-13
 7.67868E-13
 1.30504E-13
 3.54971E-13
 3.76965E-12
 4.93105E-14
 3.40930E-13
 6.03229E-14
 4.18961E-12
 1.73901E-13
 4.33985E-12
 2.90774E-13
 9.47961E-14
 4.58540E-14
 1.17293E-12
 1.84029E-12
 3.96676E-13
 1.55435E-12
 4.22541E-13
 1.67904E-12
 2.00920E-13
 8.10379E-13
 4.70150E-13
 2.22477E-12
 1.31371E-12
 6.61525E-13
 1.77048E-13
 4.41325E-12
 2.50360E-12
 1.39319E-13
 3.94357E-13
 1.57820E-12
 2.53567E-13
 2.07035E-12
 2.13644E-12
 2.98352E-13
 2.95017E-12
 5.36616E-13
 3.82775E-13
 3.30603E-13
 4.89934E-12
 8.15690E-13
 1.75054E-12
 2.73180E-12
 7.41085E-14
 7.90835E-13
 3.30424E-12
 6.71634E-13
 2.93008E-13
 2.20515E-12
 1.08174E-12
 3.91720E-13
 1.55895E-13
 3.27226E-13
 7.86218E-13
 5.82605E-14
 2.66423E-13
 2.94578E-13
 3.24083E-13
 6.96287E-13
 2.93524E-13
 5.49322E-13
 5.92352E-13
 9.35026E-13
 5.43600E-13
 7.04115E-13
 4.39138E-13
 3.11077E-13
 2.34035E-12
 2.76993E-13
 1.02658E-13
 2.77754E-13
 2.81782E-13
 1.89126E-12
 1.38261E-12
 9.57961E-13
 9.52562E-13
 1.09669E-12
 4.28313E-13
 1.54766E-13
 4.58889E-13
 2.53975E-13
 1.61177E-12
 4.60503E-13
 4.53469E-13
 1.13378E-12
 3.32693E-13
 6.04992E-14
 6.04989E-13
 4.66781E-13
 2.30421E-13
 3.32689E-13
 4.27111E-13
 2.26696E-13
 5.87055E-13
 2.56739E-13
 7.00995E-13
 2.58248E-13
 1.32069E-13
 9.55643E-13
 3.03658E-13
 2.55859E-13
 5.67213E-12
 3.05373E-12
 1.05651E-13
 2.04800E-13
 4.29276E-13
 3.45569E-13
 4.60121E-12
 7.29950E-13
 1.51832E-12
 9.50393E-13
 1.47488E-12
 1.79691E-13
 5.39544E-14
 3.73663E-13
 1.11552E-12
 1.71371E-12
 1.57478E-13
 9.81991E-13
 2.67619E-13
 3.52100E-12
 1.29171E-13
 4.94285E-13
 2.75175E-13
 4.01866E-12
 3.32635E-13
 1.30717E-12
 4.68637E-12
 1.16904E-13
 9.70549E-13
 2.00811E-13
 4.17972E-13
 3.35056E-12
 5.17476E-12
 1.70054E-13
 1.82389E-13
 2.45246E-12
 4.68191E-13
 4.47030E-13
 2.94082E-13
 4.02067E-14
 7.39382E-13
 4.40367E-13
 4.44994E-14
 4.53912E-13
 1.69038E-13
 1.62300E-13
 4.15206E-13
 3.63893E-13
 2.34792E-12
 2.00070E-13
 2.11811E-12
 1.91917E-13
 2.48670E-13
 6.65480E-13
 1.10897E-12
 5.46322E-12
 2.75107E-12
 8.42293E-13
 3.56277E-13
 2.55978E-12
 2.46447E-12
 1.86831E-12
 6.53974E-13
 6.89085E-13
 2.96623E-12
 3.45966E-12
 3.73101E-13
 2.33877E-12
 4.34011E-13
 2.34477E-13
 2.75458E-13
 6.86039E-14
 2.14320E-13
 3.08063E-13
 7.98733E-13
 7.97901E-14
 7.74865E-13
 1.43720E-12
 3.83092E-13
 8.47458E-14
 5.58904E-13
 1.42954E-13
 1.61472E-13
 3.73486E-12
 2.06520E-12
 1.36573E-12
 1.15677E-12
 3.57128E-14
 4.45874E-14
 2.36705E-12
 6.45881E-13
 1.13561E-12
 3.76417E-12
 1.73151E-12
 3.05975E-13
 4.34288E-13
 1.29877E-12
 1.53233E-12
 1.79823E-12
 5.19360E-13
 1.88524E-12
 2.73680E-13
 6.31545E-13
 2.04378E-13
 6.09182E-14
 3.79166E-13
 1.17091E-12
 4.25511E-13
 6.48530E-14
 4.82591E-13
 6.87237E-14
 3.53270E-13
 2.58242E-12
 1.69638E-13
 5.08747E-13
 3.74045E-13
 7.56198E-13
 3.62063E-13
 7.54553E-13
 2.11603E-13
 1.57625E-13
 1.36059E-12
 2.38458E-13
 4.42601E-13
 2.31053E-12
 5.14828E-13
 3.07295E-13
 6.27485E-13
 1.76788E-13
 2.16384E-12
 1.34381E-12
 4.98570E-13
 3.76017E-13
 7.97387E-13
 3.87735E-13
 1.07835E-12
 6.90302E-14
 1.53872E-12
 2.96435E-13
 1.57622E-13
 1.06628E-13
 5.72960E-14
 1.11666E-12
 4.30981E-13
 9.85826E-14
 8.92179E-14
 1.53702E-12
 8.26643E-13
 1.65121E-13
 7.44870E-13
 4.85036E-13
 2.66634E-12
 2.45684E-12
 4.27433E-14
 3.40906E-12
 2.02338E-12
 4.35362E-14
 2.93762E-12
 3.32734E-13
 1.31808E-12
 7.26723E-13
 8.88570E-13
 2.57538E-13
 4.86221E-13
 1.79175E-13
 2.04284E-13
 2.29923E-12
 2.18098E-13
 3.59645E-13
 1.66285E-12
 4.51058E-13
 1.38469E-12
 5.65381E-13
 8.46298E-14
 1.02958E-12
 1.99950E-12
 2.05750E-12
 6.54588E-13
 1.76040E-13
 2.26910E-13
 4.67840E-13
 4.13696E-13
 8.81819E-14
 2.07181E-12
 2.35926E-12
 1.44272E-12
 6.54565E-13
 5.03306E-13
 4.42530E-13
 5.65935E-13
 3.25201E-13
 1.03110E-12
 2.52616E-13
 3.83578E-13
 1.80217E-13
 5.45505E-13
 1.64421E-13
 4.85783E-14
 2.93999E-13
 4.67720E-14
 7.36908E-13
 1.76359E-12
 5.86175E-13
 3.11938E-13
 6.53802E-14
 1.52679E-13
 5.03508E-13
 3.46104E-13
 4.77364E-13
 4.49945E-13
 2.71823E-12
 3.01194E-13
 2.92526E-13
 4.07209E-12
 1.04866E-12
 1.00747E-13
 1.60914E-12
 2.29622E-13
 1.42929E-12
 7.24228E-14
 1.55440E-13
 1.63119E-13
 5.09933E-13
 6.77435E-13
 5.45150E-14
 1.62081E-12
 2.10534E-12
 7.16750E-13
 2.71086E-13
 1.79515E-13
 6.66132E-13
 4.53641E-13
 3.33081E-13
 8.34307E-13
 3.95983E-13
 3.97928E-13
 3.87763E-12
 3.95562E-13
 4.55792E-14
 1.08465E-12
 7.64443E-13
 1.58086E-12
 6.27036E-14
 2.01915E-12
 5.41473E-12
 2.21898E-12
 1.42149E-12
 1.02763E-13
 4.66312E-13
 2.17423E-13
 6.56526E-13
 1.58185E-13
 4.00590E-12
 2.66384E-12
 5.15738E-14
 7.62694E-13
 3.49397E-12
 8.02357E-13
 4.20927E-13
 4.90798E-13
 7.54695E-13
 4.22954E-13
 4.38530E-14
 1.00357E-12
 1.07672E-12
 2.58693E-13
 1.96029E-12
 5.16625E-13
 3.30757E-12
 4.81105E-13
 6.72369E-13
 8.83083E-13
 2.95830E-13
 9.96850E-13
 1.14561E-12
 8.06385E-14
 1.79981E-12
 2.78845E-12
 6.11834E-14
 3.15232E-12
 2.33169E-13
 2.18151E-13
 2.66196E-12
 3.74737E-13
 1.46917E-13
 1.94455E-13
 3.44934E-13
 1.51572E-13
 2.96218E-13
 6.15182E-13
 2.71135E-13
 2.47325E-13
 1.72619E-13
 5.16913E-13
 2.83125E-13
 2.92310E-13
 1.04398E-12
 3.57653E-13
 2.27660E-12
 2.54986E-13
 4.35783E-13
 8.96718E-13
 3.67691E-13
 1.23356E-13
 6.77294E-13
 7.48062E-14
 2.15853E-12
 4.41948E-13
 1.30983E-13
 6.27307E-14
 1.00905E-12
 8.25236E-14
 2.50868E-12
 1.32178E-13
 1.89175E-12
 4.12399E-12
 1.66731E-13
 4.72047E-13
 8.55558E-13
 2.56862E-12
 1.86188E-12
 3.86297E-13
 1.89766E-12
 2.01936E-12
 1.34827E-13
 2.03358E-13
 2.22990E-13
 4.00398E-12
 8.52865E-13
 7.92878E-14
 2.04290E-13
 2.74003E-12
 5.68501E-13
 1.68280E-12
 5.62390E-14
 5.16809E-13
 9.16435E-13
 3.98538E-13
 8.39766E-14
 4.12995E-12
 9.16599E-13
 1.78767E-13
 5.77841E-13
 1.30665E-13
 2.55884E-12
 2.47605E-12
 2.48803E-13
 2.94074E-13
 2.92241E-13
 3.33291E-12
 2.63394E-12
 1.02498E-13
 9.19264E-13
 4.02581E-14
 3.55839E-13
 6.76296E-14
 4.88853E-12
 9.23955E-13
 7.91519E-13
 2.70396E-12
 7.24406E-13
 7.44067E-13
 2.73767E-13
 3.46044E-13
 6.47299E-14
 7.50404E-14
 1.54976E-13
 3.09973E-12
 1.84950E-12
 1.77804E-12
 7.51735E-13
 3.84669E-12
 4.29078E-13
 3.79984E-14
 4.15925E-13
 1.94781E-12
 2.32159E-12
 5.82713E-13
 5.33431E-14
 5.37655E-13
 3.10928E-14
 3.21462E-13
 2.98655E-13
 1.69231E-12
 5.20633E-13
 2.05333E-12
 1.72803E-12
 1.07312E-12
 1.13043E-12
 1.67961E-13
 7.22736E-13
 1.85268E-12
 1.94774E-12
 3.87831E-13
 4.98725E-12
 2.81061E-12
 7.00786E-14
 3.93130E-12
 5.75543E-12
 3.51648E-13
 3.72995E-13
 7.45156E-14
 4.90933E-12
 5.94351E-14
 1.68656E-12
 1.39322E-12
 1.78607E-13
 4.37317E-12
 1.10849E-12
 4.50731E-13
 8.72763E-13
 1.82919E-13
 1.16426E-12
 3.47731E-13
 4.39951E-13
 1.96026E-13
 1.21178E-12
 3.06540E-13
 4.46513E-13
 1.50872E-13
 6.12883E-12
 1.43520E-12
 3.59271E-13
 1.42415E-12
 4.91422E-13
 9.16312E-13
 1.02718E-12
 4.12413E-14
 3.98011E-13
 1.01278E-12
 1.18060E-12
 1.91127E-13
 8.48694E-13
 2.56724E-12
 1.14786E-12
 1.12233E-12
 2.14084E-13
 3.11945E-12
 3.46393E-12
 3.65946E-13
 3.30796E-13
 4.48845E-13
 1.08731E-13
 2.21298E-13
 1.80555E-12
 4.54988E-13
 1.37169E-12
 2.70047E-12
 6.34197E-14
 4.31925E-12
 3.14091E-13
 1.59409E-13
 1.31303E-13
 2.17322E-13
 5.94925E-13
 2.13278E-12
 6.08299E-13
 4.14538E-14
 1.03869E-13
 1.19211E-12
 6.77356E-13
 1.51747E-13
 5.37695E-13
 5.16549E-13
 4.34851E-14
 1.02026E-13
 2.71103E-13
 4.49278E-13
 1.87757E-12
 4.38467E-12
 3.98938E-13
 2.87754E-12
 9.04891E-14
 3.52467E-12
 4.34641E-13
 1.34183E-12
 2.80817E-12
 5.82812E-13
 3.44081E-12
 2.60710E-12
 3.28760E-12
 1.76833E-13
 3.39957E-13
 4.06002E-13
 6.73270E-14
 1.78582E-13
 2.63098E-13
 8.29971E-13
 7.83636E-13
 2.16616E-12
 3.32779E-13
 2.51623E-13
 3.30624E-13
 1.81135E-12
 2.60750E-13
 2.93135E-12
 3.43791E-14
 7.44297E-13
 8.38285E-14
 1.55586E-13
 5.76580E-14
 4.03679E-13
 5.05124E-13
 2.38068E-12
 3.57128E-12
 1.46354E-12
 4.47732E-14
 2.90140E-13
 3.23260E-12
 2.46649E-13
 2.77072E-13
 6.76878E-13
 4.19004E-12
 4.22363E-13
 2.06568E-13
 2.83745E-12
 1.22345E-13
 1.49427E-12
 1.12713E-13
 4.83458E-13
 2.02227E-13
 4.63898E-12
 2.00235E-12
 3.88984E-13
 3.29237E-12
 3.02597E-12
 5.89420E-13
 3.47504E-12
 2.92012E-13
 4.47632E-13
 8.03222E-14
 2.00591E-12
 2.90143E-12
 1.51245E-13
 3.99822E-12
 5.58950E-13
 1.61181E-12
 4.60979E-12
 2.38731E-12
 4.78812E-14
 1.35077E-13
 2.01254E-13
 1.55886E-12
 1.47519E-13
 3.16718E-13
 1.46230E-13
 3.49471E-13
 3.27621E-12
 3.80746E-12
 1.71187E-13
 4.14118E-12
 3.02125E-13
 1.70562E-12
 3.86543E-13
 1.45389E-12
 2.11374E-13
 5.31853E-12
 2.68784E-13
 2.83045E-12
 4.64610E-12
 1.73430E-12
 1.78307E-12
 1.63439E-12
 3.12660E-12
 9.51235E-13
 1.32746E-12
 2.05905E-12
 2.82016E-12
 3.74785E-13
 4.85587E-14
 7.42696E-13
 1.65294E-12
 5.68902E-12
 2.48890E-12
 3.95917E-13
 7.15082E-14
 4.88809E-13
 1.02052E-12
 6.00130E-13
 7.35135E-13
 7.30764E-13
 3.21621E-12
 3.67241E-12
 3.31721E-12
 5.57868E-12
 2.82235E-13
 6.71549E-13
 8.53753E-13
 1.81491E-12
 1.80328E-12
 6.11002E-14
 4.06826E-13
 3.64826E-12
 4.31688E-13
 1.10718E-12
 1.99366E-12
 1.81677E-12
 9.62730E-13
 1.91615E-13
 1.19533E-13
 1.56883E-12
 7.89528E-13
 4.61903E-13
 1.61891E-12
 1.58039E-12
 4.04433E-12
 5.32140E-13
 2.66637E-12
 8.09127E-13
 7.38457E-13
 6.02810E-13
 2.47594E-13
 4.94454E-12
 3.84949E-12
 2.10965E-13
 1.96547E-12
 6.72155E-13
 5.61860E-14
 1.04624E-12
 1.40232E-13
 1.28788E-12
 4.02996E-13
 6.90202E-14
 2.13881E-13
 6.98709E-14
 4.23118E-13
 2.41055E-12
 4.24242E-12
 4.44479E-13
 3.48803E-12
 8.62794E-14
 6.11463E-14
 1.16779E-12
 9.75732E-13
 2.13067E-13
 8.56292E-13
 1.06992E-12
 7.35600E-13
 3.86810E-12
 3.65303E-12
 3.49824E-12
 4.63459E-13
 4.39158E-13
 3.73904E-12
 1.50346E-12
 1.80413E-12
 1.78130E-12
 6.05641E-13
 1.05698E-13
 6.59929E-14
 4.30977E-14
 3.67716E-12
 1.03565E-13
 2.29922E-12
 2.23134E-13
 1.06627E-13
 3.32265E-13
 3.69506E-12
 5.06709E-14
 3.92370E-12
 4.61771E-13
 4.68637E-13
 6.23156E-14
 5.02682E-12
 1.80883E-12
 4.35132E-12
 2.07602E-12
 2.24428E-13
 3.96908E-12
 3.29214E-12
 1.88757E-12
 2.18363E-13
 2.45023E-13
 2.56917E-13
 4.56280E-12
 4.20429E-12
 5.59785E-13
 4.22931E-13
 4.02801E-12
 5.86566E-12
 4.66267E-13
 6.72357E-14
 4.35493E-14
 3.29203E-12
 4.79089E-12
 5.19803E-12
 5.14064E-13
 5.14832E-12
 4.94889E-12
 1.51710E-13
 7.33378E-14
 1.62590E-13
 2.10335E-13
 2.39121E-13
 3.20577E-13
 3.00665E-12
 2.49735E-12
 1.56911E-13
 1.54993E-13
 1.25456E-13
 4.30475E-13
 2.64304E-12
 5.41231E-13
 2.55248E-12
 1.74865E-12
 4.75491E-13
 3.24309E-12
 3.69988E-13
 6.00338E-13
 5.29956E-14
 1.89100E-13
 4.41462E-13
 8.41849E-13
 5.60921E-13
 1.02406E-13
 4.76241E-13
 3.47577E-12
 3.94973E-13
 1.90903E-12
 1.95168E-12
 6.73454E-13
 2.28294E-12
 2.50438E-13
 4.21493E-13
 2.61764E-13
 1.59039E-12
 4.50208E-13
 3.12130E-13
 5.13857E-13
 1.90767E-13
 8.96389E-14
 3.40046E-13
 5.04993E-14
 3.34226E-13
 7.70157E-13
 1.43198E-13
 7.67081E-13
 4.59392E-13
 7.26089E-13
 1.84480E-13
 2.22180E-12
 8.16343E-13
 6.47406E-13
 3.19284E-12
 2.06479E-13
 2.32434E-13
 4.86767E-13
 3.47990E-12
 7.50750E-13
 9.73380E-13
 2.35247E-12
 1.52489E-13
 2.84629E-13
 1.70399E-13
 3.65851E-13
 2.17420E-13
 2.62098E-13
 1.86314E-13
 2.06811E-12
 5.15200E-13
 3.01350E-13
 8.24577E-13
 3.99872E-13
 3.21909E-13
 1.06725E-12
 1.77518E-13
 4.26381E-13
 2.26945E-12
 5.32127E-13
 5.17155E-13
 1.73092E-13
 9.87671E-14
 2.64023E-12
 1.81887E-12
 2.18927E-12
 8.29178E-13
 8.06928E-14
 3.89323E-14
 2.34287E-13
 1.99399E-13
 2.82732E-12
 2.02471E-13
 1.54241E-13
 2.31046E-12
 7.02984E-13
 2.89399E-13
 2.15138E-13
 7.53616E-13
 1.57102E-13
 5.59997E-14
 2.64123E-13
 7.71732E-13
 7.72951E-13
 4.56658E-13
 3.63258E-13
 5.22269E-12
 1.52109E-13
 1.22543E-13
 3.65542E-13
 1.29374E-13
 3.88260E-13
 4.56635E-13
 2.66212E-12
 3.80872E-13
 2.06176E-12
 8.31176E-13
 3.76134E-13
 5.24381E-13
 4.68727E-13
 4.27594E-13
 2.10545E-13
 9.76428E-13
 5.06154E-13
 2.20622E-12
 2.42063E-13
 3.00459E-13
 1.31019E-12
 4.45934E-13
 4.33270E-14
 4.67462E-13
 4.10120E-14
 1.62219E-12
 1.95147E-13
 1.67957E-13
 1.69035E-13
 8.04923E-14
 8.25965E-13
 7.53019E-14
 2.17911E-13
 1.31776E-12
 3.66522E-13
 8.12830E-13
 5.27787E-13
 5.14946E-13
 1.16047E-13
 2.97748E-13
 5.87951E-13
 3.25084E-13
 4.45005E-13
 2.02947E-13
 1.69905E-12
 2.02641E-13
 7.74739E-13
 7.62026E-13
 3.57518E-12
 2.69306E-13
 8.56587E-14
 4.72216E-12
 3.89565E-12
 1.32745E-12
 8.20176E-14
 7.51090E-13
 4.21437E-12
 4.48627E-13
 1.72661E-12
 8.45032E-13
 4.24017E-13
 3.15638E-13
 1.94349E-12
 2.19419E-13
 2.02361E-12
 7.62933E-13
 1.86858E-13
 5.14273E-12
 8.50226E-14
 1.60382E-12
 1.82377E-13
 1.97214E-13
 3.42842E-13
 1.74229E-12
 1.17320E-12
 8.89621E-14
 4.86747E-13
 2.01668E-13
 1.52507E-13
 2.47004E-12
 3.85729E-14
 7.64080E-13
 1.88950E-13
 2.07130E-13
 2.33404E-13
 6.64817E-13
 2.93811E-13
 3.43371E-13
 3.33817E-12
 4.46002E-13
 4.10672E-13
 2.23442E-13
 5.66512E-13
 8.19307E-14
 1.03693E-13
 3.36708E-12
 2.27055E-13
 6.57801E-12
 4.65897E-13
 1.95246E-13
 5.05369E-13
 1.19757E-12
 1.55255E-13
 9.15204E-14
 1.06968E-13
 1.63146E-12
 3.46647E-12
 2.31260E-12
 3.41544E-13
 6.62195E-14
 1.10011E-12
 3.82933E-14
 8.67141E-13
 5.86304E-13
 3.08609E-13
 7.13960E-13
 1.21484E-12
 9.83500E-13
 8.60003E-13
 2.81934E-13
 4.36849E-13
 6.58826E-13
 5.14634E-12
 3.45760E-13
 6.37663E-14
 2.94179E-13
 2.28973E-13
 5.81898E-13
 1.17021E-12
 4.11307E-13
 2.06378E-12
 2.57302E-13
 9.42683E-14
 5.31149E-13
 1.70267E-12
 8.31756E-13
 1.83910E-12
 4.92804E-13
 4.97471E-13
 2.91406E-13
 1.59279E-13
 4.32688E-14
 7.86108E-13
 2.33686E-12
 4.71557E-12
 2.16876E-13
 2.11924E-12
 8.18384E-13
 4.12492E-13
 3.46541E-13
 3.39371E-12
 1.96591E-12
 4.09872E-12
 1.23112E-12
 4.66419E-13
 4.50472E-13
 5.60919E-13
 7.33778E-13
 6.11194E-13
 5.18832E-13
 4.68915E-13
 5.50787E-12
 2.55273E-13
 5.50212E-13
 4.71969E-13
 4.88029E-13
 3.99314E-13
 4.85268E-12
 7.72199E-14
 1.96109E-13
 3.54082E-14
 8.00631E-13
 3.43779E-13
 2.40825E-13
 1.60755E-12
 3.21863E-13
 3.48146E-13
 2.70247E-12
 1.64784E-12
 5.08085E-14
 2.69996E-12
 5.72713E-13
 3.82402E-13
 1.25464E-13
 3.66013E-13
 2.17799E-12
 1.43627E-12
 2.58954E-13
 8.76313E-14
 1.30137E-13
 7.05154E-13
 1.10792E-12
 1.66711E-12
 1.26042E-12
 3.95094E-13
 5.11077E-13
 1.94575E-12
 1.71558E-12
 3.62698E-13
 3.46856E-13
 8.07944E-13
 3.76416E-12
 2.81676E-12
 1.45906E-13
 5.28681E-14
 4.90391E-13
 2.05668E-12
 2.22167E-13
 4.37665E-12
 1.07304E-12
 6.07065E-13
 8.65349E-13
 2.27431E-12
 3.47547E-13
 2.14534E-12
 9.89548E-13
 1.66077E-12
 2.66849E-12
 2.45167E-12
 1.14918E-13
 2.06958E-13
 9.00647E-13
 1.69950E-12
 1.90995E-12
 5.25605E-12
 4.24522E-13
 8.70716E-13
 4.99091E-13
 3.91054E-13
 4.25419E-12
 4.32858E-14
 1.26158E-12
 3.72879E-13
 1.38423E-12
 1.70331E-13
 6.27381E-13
 1.66565E-13
 5.75027E-13
 9.27460E-14
 2.30354E-12
 1.49283E-13
 1.82832E-13
 1.80697E-13
 5.38089E-14
 2.76519E-13
 4.53978E-13
 2.94815E-12
 2.55235E-13
 1.50306E-12
 4.66530E-12
 4.35394E-13
 4.84720E-14
 2.19440E-12
 2.09012E-13
 6.61658E-14
 3.60450E-13
 3.41086E-12
 5.21353E-12
 2.58446E-12
 4.37919E-12
 1.07388E-13
 1.79695E-13
 4.82549E-13
 7.84416E-13
 3.47694E-12
 8.28743E-14
 4.16546E-12
 6.47732E-13
 8.54349E-13
 5.50493E-13
 3.95066E-13
 1.87575E-13
 5.58527E-13
 4.58490E-13
 2.43023E-13
 5.15399E-13
 7.54275E-13
 1.17991E-13
 5.97854E-13
 6.44415E-13
 7.52802E-13
 4.48185E-12
 9.42748E-13
 8.77334E-13
 3.67342E-12
 4.06496E-12
 4.64766E-13
 8.07872E-13
 8.77403E-13
 5.87401E-12
 3.04223E-12
 4.44835E-12
 1.71880E-12
 3.47707E-12
 5.06153E-13
 4.47962E-14
 3.72864E-12
 5.33141E-12
 3.40724E-12
 5.25097E-12
 3.07432E-12
 1.30297E-13
 3.31791E-12
 4.51982E-12
 1.58205E-12
 3.81100E-13
 2.10765E-12
 7.42725E-13
 3.02589E-13
 1.73565E-12
 3.05125E-13
 2.28414E-12
 2.61643E-13
 5.59188E-14
 2.53112E-13
 8.08815E-14
 4.96973E-12
 3.54271E-13
 6.41898E-13
 2.00099E-12
 1.63221E-13
 1.90345E-12
 6.00120E-12
 5.19248E-12
 6.15714E-14
 4.98839E-12
 3.41998E-12
 3.53306E-12
 6.76027E-13
 8.26339E-13
 1.67416E-13
 3.05305E-13
 5.52927E-13
 5.75384E-12
 4.55075E-12
 9.25630E-13
 3.67642E-13
 4.61422E-13
 2.74896E-12
 5.34188E-13
 4.37261E-14
 1.66013E-12
 2.88348E-13
 6.66932E-13
 5.24951E-13
 1.68261E-13
 4.90584E-12
 2.74050E-12
 5.38566E-13
 1.70339E-13
 7.16542E-13
 6.30172E-13
 2.21315E-12
 6.46434E-14
 5.52427E-12
 3.36758E-12
 1.93381E-12
 4.32441E-13
 5.27121E-12
 5.42516E-12
 5.09663E-13
 1.92983E-13
 1.11168E-13
 4.97828E-13
 1.79581E-12
 2.13901E-13
 2.29483E-12
 3.75359E-12
 2.45149E-12
 5.05858E-14
 4.98803E-13
 2.12306E-12
 3.57536E-12
 4.05105E-12
 2.35260E-13
 3.12558E-12
 7.51934E-14
 4.38287E-13
 5.74427E-13
 1.47281E-13
 1.76397E-12
 7.79516E-13
 4.93616E-13
 3.96830E-12
 2.34708E-12
 1.62628E-13
 5.41703E-13
 6.24902E-14
 3.26052E-12
 3.35343E-12
 9.86751E-14
 1.80376E-13
 1.70231E-12
 3.36388E-13
 1.43605E-13
 1.31823E-13
 4.75096E-13
 4.87960E-13
 2.83481E-12
 1.03204E-13
 4.21733E-12
 3.43575E-13
 6.22898E-13
 2.59878E-13
 1.51922E-13
 3.16094E-12
 4.66112E-13
 5.50215E-12
 5.43829E-12
 1.18148E-12
 6.09561E-14
 8.22338E-14
 1.52973E-13
 1.80997E-12
 3.88994E-13
 9.98785E-14
 3.94471E-13
 4.21112E-13
 3.65313E-13
 1.38913E-12
 2.68243E-13
 2.44331E-12
 2.07736E-12
 2.49014E-13
 3.22493E-14
 3.54535E-13
 4.88845E-12
 1.98870E-12
 1.85443E-12
 6.09970E-14
 2.04536E-12
 6.16135E-13
 2.20992E-12
 1.59593E-12
 2.87550E-12
 2.79528E-12
 7.91599E-14
 1.85087E-12
 1.65716E-13
 3.14523E-13
 8.15010E-13
 1.05414E-12
 3.62992E-13
 3.16097E-12
 6.84501E-14
 8.08691E-13
 6.45319E-13
 5.12874E-13
 7.83159E-13
 4.48401E-13
 3.04493E-13
 1.12454E-12
 6.56324E-13
 1.27780E-12
 2.64282E-12
 1.03841E-12
 1.98852E-12
 1.86240E-12
 1.11913E-12
 1.44314E-12
 4.78803E-12
 3.96680E-13
 2.04633E-12
 3.73288E-13
 1.72518E-12
 1.65170E-13
 1.21489E-12
 1.65704E-12
 5.36276E-13
 5.61686E-13
 7.79550E-13
 2.60730E-12
 1.40813E-13
 5.21148E-14
 1.20733E-13
 7.23725E-14
 2.56754E-13
 1.36415E-12
 4.16822E-13
 4.40407E-13
 3.98790E-14
 2.36843E-12
 7.41754E-14
 1.98364E-13
 4.94288E-14
 2.70499E-13
 6.92610E-13
 1.14433E-12
 1.68250E-12
 2.88405E-12
 4.94373E-13
 6.76986E-14
 3.43414E-12
 5.80882E-13
 1.55166E-13
 1.96936E-13
 1.77853E-13
 3.51476E-13
 7.68255E-14
 2.61527E-12
 9.84665E-13
 5.99817E-12
 1.44545E-12
 1.65657E-12
 1.99818E-12
 1.95306E-12
 3.38366E-14
 1.77346E-13
 1.94439E-12
 7.78545E-13
 3.10040E-13
 3.16226E-13
 3.87465E-13
 6.59958E-14
 1.03386E-13
 3.73942E-13
 4.88245E-13
 4.67731E-12
 2.06701E-12
 5.44536E-12
 6.21784E-13
 8.09939E-13
 3.07594E-12
 5.20098E-13
 4.04920E-13
 8.49257E-13
 3.84601E-14
 1.13188E-12
 2.50840E-12
 7.15323E-13
 2.87296E-12
 4.38348E-12
 4.90122E-12
 7.10703E-13
 2.26208E-13
 2.13037E-12
 2.58319E-12
 3.78014E-14
 3.57587E-12
 5.08705E-12
 6.52206E-13
 1.41610E-13
 2.09754E-12
 2.78898E-13
 8.81455E-13
 2.90534E-13
 1.55593E-13
 7.50959E-14
 3.77535E-12
 3.12134E-13
 3.19520E-13
 4.95443E-13
 4.96228E-13
 6.41085E-13
 4.47383E-13
 9.35907E-13
 4.13839E-14
 2.19439E-13
 5.35365E-14
 9.67533E-14
 2.24575E-13
 2.83817E-13
 2.19168E-13
 4.89042E-13
 4.75904E-13
 2.28953E-13
 3.97870E-12
 4.17513E-13
 4.70173E-12
 1.91391E-13
 1.36283E-12
 5.80686E-13
 1.96177E-13
 2.19896E-13
 5.12463E-13
 2.43988E-13
 1.09500E-12
 2.70188E-13
 4.26919E-13
 4.30067E-13
 1.68796E-12
 2.60200E-12
 9.80288E-13
 4.96524E-13
 5.15249E-13
 1.12180E-12
 2.33638E-13
 6.69433E-13
 5.04103E-13
 8.67988E-14
 2.35658E-13
 4.73199E-13
 1.76301E-13
 1.37749E-13
 1.30130E-12
 3.96249E-13
 4.58121E-13
 4.53831E-13
 2.37735E-12
 7.73956E-13
 1.07792E-12
 4.68438E-12
 9.10811E-13
 3.77116E-13
 4.54612E-13
 9.29419E-14
 4.40975E-13
 3.25512E-12
 5.74444E-13
 3.86834E-14
 1.12999E-12
 1.63973E-13
 4.66381E-13
 8.07355E-13
 1.16624E-12
 9.38718E-13
 9.49204E-13
 2.16661E-13
 3.83691E-13
 4.53673E-13
 3.00594E-13
 2.31614E-13
 5.88791E-14
 1.82021E-12
 1.34447E-12
 8.41513E-13
 4.19101E-13
 4.42101E-13
 3.79627E-13
 1.16198E-12
 3.49854E-12
 1.31172E-13
 1.61178E-13
 2.48585E-13
 2.88946E-13
 1.41735E-13
 3.80106E-13
 5.59943E-14
 8.95418E-13
 1.81340E-12
 3.93564E-14
 2.27416E-13
 1.05302E-12
 7.25392E-14
 1.09831E-12
 4.76155E-13
 1.17507E-12
 1.46752E-13
 3.62029E-13
 4.82894E-13
 4.32688E-13
 3.85043E-14
 1.67090E-13
 4.16471E-13
 2.07169E-13
 3.87409E-13
 9.63346E-14
 2.61897E-13
 1.39339E-13
 5.82796E-13
 8.01449E-13
 2.39649E-13
 2.62047E-13
 1.56585E-13
 4.71287E-12
 1.98155E-12
 4.94098E-14
 1.01203E-13
 2.97848E-13
 3.28238E-12
 1.57865E-12
 5.74084E-14
 4.68798E-13
 5.50339E-14
 2.05086E-12
 1.34762E-13
 1.28627E-12
 1.56726E-13
 5.61538E-13
 1.23109E-12
 5.76537E-13
 2.15002E-13
 4.36671E-14
 1.16560E-12
 5.36010E-13
 1.75507E-12
 4.21138E-13
 4.66868E-13
 2.00275E-13
 1.49978E-12
 6.31195E-14
 7.78324E-13
 2.44131E-12
 9.75088E-14
 6.21080E-14
 4.78443E-13
 1.39064E-13
 1.90677E-12
 5.32671E-13
 1.07654E-12
 4.43426E-13
 4.69717E-13
 4.69408E-13
 3.52810E-13
 1.25400E-13
 7.50495E-13
 8.19957E-14
 4.51705E-13
 2.85148E-13
 2.42969E-13
 1.68297E-12
 5.84906E-13
 1.38151E-12
 4.94726E-13
 3.49493E-13
 5.87981E-13
 5.58352E-12
 4.87662E-14
 4.32638E-13
 2.59487E-13
 8.89343E-14
 5.46542E-14
 6.05133E-13
 4.01089E-13
 4.30938E-13
 4.62040E-13
 1.21121E-13
 2.86594E-13
 4.60804E-13
 4.30867E-13
 9.49064E-13
 1.35922E-12
 4.29894E-13
 5.77235E-13
 1.15236E-13
 4.85052E-13
 4.96267E-13
 6.71449E-13
 5.92641E-13
 3.68420E-13
 2.28821E-12
 8.10018E-14
 1.44084E-13
 1.19467E-12
 4.04358E-13
 1.55423E-12
 2.65929E-13
 7.54756E-13
 4.80088E-14
 3.70846E-13
 2.59500E-12
 5.16373E-13
 2.05934E-13
 2.13244E-12
 1.11772E-12
 1.54487E-12
 1.68169E-12
 5.80226E-13
 1.78211E-13
 1.41892E-13
 7.14075E-13
 7.54704E-13
 1.13213E-13
 8.93512E-14
 5.67506E-14
 1.44889E-13
 9.70912E-13
 6.89827E-13
 2.34819E-13
 3.08320E-13
 5.82781E-14
 2.78109E-12
 2.87066E-13
 7.40611E-13
 2.45594E-13
 6.20380E-14
 4.52406E-12
 2.95161E-13
 1.17065E-12
 2.17782E-13
 3.20820E-13
 2.20435E-13
 8.04693E-14
 3.08772E-12
 1.14490E-12
 8.01793E-13
 5.70912E-13
 4.70928E-13
 3.07882E-13
 8.61286E-13
 1.21524E-13
 5.03667E-13
 8.55693E-13
 1.25795E-13
 1.51683E-13
 7.97513E-14
 1.77994E-13
 1.58797E-13
 1.19124E-12
 1.31490E-12
 4.36480E-13
 7.29973E-14
 9.26722E-13
 8.12967E-13
 4.31729E-13
 5.15039E-13
 6.79995E-13
 1.41559E-13
 1.79072E-12
 3.99326E-12
 5.10313E-13
 5.49725E-13
 9.25991E-14
 2.78413E-12
 4.87497E-13
 9.72879E-14
 6.79627E-14
 1.72521E-12
 7.37559E-13
 4.55302E-13
 5.32880E-13
 3.51024E-12
 1.14874E-12
 8.96006E-13
 1.71328E-12
 1.30826E-12
 1.00791E-13
 2.14642E-13
 2.28028E-13
 9.91767E-13
 1.08499E-13
 1.15113E-13
 6.34698E-14
 3.08083E-13
 4.75664E-13
 1.27104E-12
 1.26597E-12
 4.66990E-12
 1.50576E-12
 1.85908E-12
 5.70558E-14
 1.17292E-13
 9.59353E-13
 1.48604E-12
 1.34363E-12
 4.21496E-14
 1.08990E-12
 6.20681E-14
 1.52116E-12
 2.06104E-12
 4.82606E-12
 2.85955E-12
 1.50917E-12
 4.18927E-13
 4.49580E-13
 3.58982E-12
 3.80111E-14
 5.53535E-14
 2.09939E-12
 5.98369E-12
 4.15065E-12
 9.49778E-13
 2.09724E-12
 8.02887E-13
 4.43218E-13
 1.77894E-12
 8.47758E-13
 1.24587E-12
 4.25790E-12
 5.24626E-13
 1.73013E-13
 1.78167E-13
 1.94771E-13
 1.03392E-12
 2.96063E-13
 3.90427E-13
 1.23555E-12
 5.80438E-13
 8.31213E-13
 2.92210E-13
 7.60837E-13
 4.09512E-13
 4.84984E-13
 9.12604E-13
 1.74647E-13
 8.08888E-13
 3.74333E-13
 4.41923E-13
 1.40051E-12
 2.02248E-13
 5.67750E-13
 1.92539E-13
 5.31502E-13
 8.47241E-13
 2.77157E-13
 2.71888E-12
 4.50803E-13
 1.95523E-12
 6.32834E-13
 2.19177E-13
 4.93704E-13
 1.70314E-13
 2.23309E-13
 2.34225E-12
 3.23539E-12
 3.47924E-12
 1.23357E-12
 3.66027E-13
 7.71697E-14
 6.53157E-14
 7.70869E-13
 2.39971E-12
 5.15700E-12
 2.91654E-13
 3.40041E-12
 1.03015E-12
 3.15707E-13
 8.26173E-14
 3.64617E-13
 4.54826E-13
 7.21928E-13
 5.81127E-13
 2.25792E-12
 1.02942E-12
 1.34383E-13
 5.01761E-12
 4.94613E-12
 1.91042E-12
 1.46006E-12
 1.43205E-12
 1.06024E-12
 1.21179E-12
 3.51732E-12
 4.54455E-13
 1.09956E-12
 2.00758E-13
 1.79183E-12
 1.99449E-12
 4.69748E-13
 7.99257E-13
 8.19551E-14
 1.29673E-12
 5.44036E-13
 1.77138E-12
 1.81151E-13
 2.17065E-12
 3.36137E-13